<?xml version="1.0" encoding="UTF-8"?>
<networkChangeEvents xmlns="http://www.matsim.org/files/dtd" xmlns:xsi="http://www.w3.org/2001/XMLSchema-instance" xsi:schemaLocation="http://www.matsim.org/files/dtd http://www.matsim.org/files/dtd/networkChangeEvents.xsd">

	<networkChangeEvent startTime="06:00:00">
		<link refId="ed-2"/>
		<freespeed type="absolute" value="3.0"/>
	</networkChangeEvent>

	<networkChangeEvent startTime="06:00:01">
		<link refId="ed-2"/>
		<freespeed type="absolute" value="3.0"/>
	</networkChangeEvent>

	<networkChangeEvent startTime="06:00:02">
		<link refId="ed-2"/>
		<freespeed type="absolute" value="3.0"/>
	</networkChangeEvent>

	<networkChangeEvent startTime="06:00:03">
		<link refId="ed-2"/>
		<freespeed type="absolute" value="3.0"/>
	</networkChangeEvent>

	<networkChangeEvent startTime="06:00:04">
		<link refId="ed-2"/>
		<freespeed type="absolute" value="3.0"/>
	</networkChangeEvent>

	<networkChangeEvent startTime="06:00:05">
		<link refId="ed-2"/>
		<freespeed type="absolute" value="3.0"/>
	</networkChangeEvent>

	<networkChangeEvent startTime="06:00:06">
		<link refId="ed-2"/>
		<freespeed type="absolute" value="3.0"/>
	</networkChangeEvent>

	<networkChangeEvent startTime="06:00:07">
		<link refId="ed-2"/>
		<freespeed type="absolute" value="3.0"/>
	</networkChangeEvent>

	<networkChangeEvent startTime="06:00:08">
		<link refId="ed-2"/>
		<freespeed type="absolute" value="3.0"/>
	</networkChangeEvent>

	<networkChangeEvent startTime="06:00:09">
		<link refId="ed-2"/>
		<freespeed type="absolute" value="3.0"/>
	</networkChangeEvent>

	<networkChangeEvent startTime="06:00:10">
		<link refId="ed-2"/>
		<freespeed type="absolute" value="3.0"/>
	</networkChangeEvent>

	<networkChangeEvent startTime="06:00:11">
		<link refId="ed-2"/>
		<freespeed type="absolute" value="3.0"/>
	</networkChangeEvent>

	<networkChangeEvent startTime="06:00:12">
		<link refId="ed-2"/>
		<freespeed type="absolute" value="3.0"/>
	</networkChangeEvent>

	<networkChangeEvent startTime="06:00:13">
		<link refId="ed-2"/>
		<freespeed type="absolute" value="3.0"/>
	</networkChangeEvent>

	<networkChangeEvent startTime="06:00:14">
		<link refId="ed-2"/>
		<freespeed type="absolute" value="3.0"/>
	</networkChangeEvent>

	<networkChangeEvent startTime="06:00:15">
		<link refId="ed-2"/>
		<freespeed type="absolute" value="3.0"/>
	</networkChangeEvent>

	<networkChangeEvent startTime="06:00:16">
		<link refId="ed-2"/>
		<freespeed type="absolute" value="3.0"/>
	</networkChangeEvent>

	<networkChangeEvent startTime="06:00:17">
		<link refId="ed-2"/>
		<freespeed type="absolute" value="3.0"/>
	</networkChangeEvent>

	<networkChangeEvent startTime="06:00:18">
		<link refId="ed-2"/>
		<freespeed type="absolute" value="3.0"/>
	</networkChangeEvent>

	<networkChangeEvent startTime="06:00:19">
		<link refId="ed-2"/>
		<freespeed type="absolute" value="3.0"/>
	</networkChangeEvent>

	<networkChangeEvent startTime="06:00:20">
		<link refId="ed-2"/>
		<freespeed type="absolute" value="3.0"/>
	</networkChangeEvent>

	<networkChangeEvent startTime="06:00:21">
		<link refId="ed-2"/>
		<freespeed type="absolute" value="3.0"/>
	</networkChangeEvent>

	<networkChangeEvent startTime="06:00:22">
		<link refId="ed-2"/>
		<freespeed type="absolute" value="3.0"/>
	</networkChangeEvent>

	<networkChangeEvent startTime="06:00:23">
		<link refId="ed-2"/>
		<freespeed type="absolute" value="3.0"/>
	</networkChangeEvent>

	<networkChangeEvent startTime="06:00:24">
		<link refId="ed-2"/>
		<freespeed type="absolute" value="3.0"/>
	</networkChangeEvent>

	<networkChangeEvent startTime="06:00:25">
		<link refId="ed-2"/>
		<freespeed type="absolute" value="3.0"/>
	</networkChangeEvent>

	<networkChangeEvent startTime="06:00:26">
		<link refId="ed-2"/>
		<freespeed type="absolute" value="3.0"/>
	</networkChangeEvent>

	<networkChangeEvent startTime="06:00:27">
		<link refId="ed-2"/>
		<freespeed type="absolute" value="3.0"/>
	</networkChangeEvent>

	<networkChangeEvent startTime="06:00:28">
		<link refId="ed-2"/>
		<freespeed type="absolute" value="3.0"/>
	</networkChangeEvent>

	<networkChangeEvent startTime="06:00:29">
		<link refId="ed-2"/>
		<freespeed type="absolute" value="3.0"/>
	</networkChangeEvent>

	<networkChangeEvent startTime="06:00:30">
		<link refId="ed-2"/>
		<freespeed type="absolute" value="3.0"/>
	</networkChangeEvent>

	<networkChangeEvent startTime="06:00:31">
		<link refId="ed-2"/>
		<freespeed type="absolute" value="3.0"/>
	</networkChangeEvent>

	<networkChangeEvent startTime="06:00:32">
		<link refId="ed-2"/>
		<freespeed type="absolute" value="3.0"/>
	</networkChangeEvent>

	<networkChangeEvent startTime="06:00:33">
		<link refId="ed-2"/>
		<freespeed type="absolute" value="3.0"/>
	</networkChangeEvent>

	<networkChangeEvent startTime="06:00:34">
		<link refId="ed-2"/>
		<freespeed type="absolute" value="3.0"/>
	</networkChangeEvent>

	<networkChangeEvent startTime="06:00:35">
		<link refId="ed-2"/>
		<freespeed type="absolute" value="3.0"/>
	</networkChangeEvent>

	<networkChangeEvent startTime="06:00:36">
		<link refId="ed-2"/>
		<freespeed type="absolute" value="3.0"/>
	</networkChangeEvent>

	<networkChangeEvent startTime="06:00:37">
		<link refId="ed-2"/>
		<freespeed type="absolute" value="3.0"/>
	</networkChangeEvent>

	<networkChangeEvent startTime="06:00:38">
		<link refId="ed-2"/>
		<freespeed type="absolute" value="3.0"/>
	</networkChangeEvent>

	<networkChangeEvent startTime="06:00:39">
		<link refId="ed-2"/>
		<freespeed type="absolute" value="3.0"/>
	</networkChangeEvent>

	<networkChangeEvent startTime="06:00:40">
		<link refId="ed-2"/>
		<freespeed type="absolute" value="3.0"/>
	</networkChangeEvent>

	<networkChangeEvent startTime="06:00:41">
		<link refId="ed-2"/>
		<freespeed type="absolute" value="3.0"/>
	</networkChangeEvent>

	<networkChangeEvent startTime="06:00:42">
		<link refId="ed-2"/>
		<freespeed type="absolute" value="3.0"/>
	</networkChangeEvent>

	<networkChangeEvent startTime="06:00:43">
		<link refId="ed-2"/>
		<freespeed type="absolute" value="3.0"/>
	</networkChangeEvent>

	<networkChangeEvent startTime="06:00:44">
		<link refId="ed-2"/>
		<freespeed type="absolute" value="3.0"/>
	</networkChangeEvent>

	<networkChangeEvent startTime="06:00:45">
		<link refId="ed-2"/>
		<freespeed type="absolute" value="3.0"/>
	</networkChangeEvent>

	<networkChangeEvent startTime="06:00:46">
		<link refId="ed-2"/>
		<freespeed type="absolute" value="3.0"/>
	</networkChangeEvent>

	<networkChangeEvent startTime="06:00:47">
		<link refId="ed-2"/>
		<freespeed type="absolute" value="3.0"/>
	</networkChangeEvent>

	<networkChangeEvent startTime="06:00:48">
		<link refId="ed-2"/>
		<freespeed type="absolute" value="3.0"/>
	</networkChangeEvent>

	<networkChangeEvent startTime="06:00:49">
		<link refId="ed-2"/>
		<freespeed type="absolute" value="3.0"/>
	</networkChangeEvent>

	<networkChangeEvent startTime="06:00:50">
		<link refId="ed-2"/>
		<freespeed type="absolute" value="3.0"/>
	</networkChangeEvent>

	<networkChangeEvent startTime="06:00:51">
		<link refId="ed-2"/>
		<freespeed type="absolute" value="3.0"/>
	</networkChangeEvent>

	<networkChangeEvent startTime="06:00:52">
		<link refId="ed-2"/>
		<freespeed type="absolute" value="3.0"/>
	</networkChangeEvent>

	<networkChangeEvent startTime="06:00:53">
		<link refId="ed-2"/>
		<freespeed type="absolute" value="3.0"/>
	</networkChangeEvent>

	<networkChangeEvent startTime="06:00:54">
		<link refId="ed-2"/>
		<freespeed type="absolute" value="3.0"/>
	</networkChangeEvent>

	<networkChangeEvent startTime="06:00:55">
		<link refId="ed-2"/>
		<freespeed type="absolute" value="3.0"/>
	</networkChangeEvent>

	<networkChangeEvent startTime="06:00:56">
		<link refId="ed-2"/>
		<freespeed type="absolute" value="3.0"/>
	</networkChangeEvent>

	<networkChangeEvent startTime="06:00:57">
		<link refId="ed-2"/>
		<freespeed type="absolute" value="3.0"/>
	</networkChangeEvent>

	<networkChangeEvent startTime="06:00:58">
		<link refId="ed-2"/>
		<freespeed type="absolute" value="3.0"/>
	</networkChangeEvent>

	<networkChangeEvent startTime="06:00:59">
		<link refId="ed-2"/>
		<freespeed type="absolute" value="3.0"/>
	</networkChangeEvent>

	<networkChangeEvent startTime="06:01:00">
		<link refId="ed-2"/>
		<freespeed type="absolute" value="3.0"/>
	</networkChangeEvent>

	<networkChangeEvent startTime="06:01:01">
		<link refId="ed-2"/>
		<freespeed type="absolute" value="3.0"/>
	</networkChangeEvent>

	<networkChangeEvent startTime="06:01:02">
		<link refId="ed-2"/>
		<freespeed type="absolute" value="3.0"/>
	</networkChangeEvent>

	<networkChangeEvent startTime="06:01:03">
		<link refId="ed-2"/>
		<freespeed type="absolute" value="3.0"/>
	</networkChangeEvent>

	<networkChangeEvent startTime="06:01:04">
		<link refId="ed-2"/>
		<freespeed type="absolute" value="3.0"/>
	</networkChangeEvent>

	<networkChangeEvent startTime="06:01:05">
		<link refId="ed-2"/>
		<freespeed type="absolute" value="3.0"/>
	</networkChangeEvent>

	<networkChangeEvent startTime="06:01:06">
		<link refId="ed-2"/>
		<freespeed type="absolute" value="3.0"/>
	</networkChangeEvent>

	<networkChangeEvent startTime="06:01:07">
		<link refId="ed-2"/>
		<freespeed type="absolute" value="3.0"/>
	</networkChangeEvent>

	<networkChangeEvent startTime="06:01:08">
		<link refId="ed-2"/>
		<freespeed type="absolute" value="3.0"/>
	</networkChangeEvent>

	<networkChangeEvent startTime="06:01:09">
		<link refId="ed-2"/>
		<freespeed type="absolute" value="3.0"/>
	</networkChangeEvent>

	<networkChangeEvent startTime="06:01:10">
		<link refId="ed-2"/>
		<freespeed type="absolute" value="3.0"/>
	</networkChangeEvent>

	<networkChangeEvent startTime="06:01:11">
		<link refId="ed-2"/>
		<freespeed type="absolute" value="3.0"/>
	</networkChangeEvent>

	<networkChangeEvent startTime="06:01:12">
		<link refId="ed-2"/>
		<freespeed type="absolute" value="3.0"/>
	</networkChangeEvent>

	<networkChangeEvent startTime="06:01:13">
		<link refId="ed-2"/>
		<freespeed type="absolute" value="3.0"/>
	</networkChangeEvent>

	<networkChangeEvent startTime="06:01:14">
		<link refId="ed-2"/>
		<freespeed type="absolute" value="3.0"/>
	</networkChangeEvent>

	<networkChangeEvent startTime="06:01:15">
		<link refId="ed-2"/>
		<freespeed type="absolute" value="3.0"/>
	</networkChangeEvent>

	<networkChangeEvent startTime="06:01:16">
		<link refId="ed-2"/>
		<freespeed type="absolute" value="3.0"/>
	</networkChangeEvent>

	<networkChangeEvent startTime="06:01:17">
		<link refId="ed-2"/>
		<freespeed type="absolute" value="3.0"/>
	</networkChangeEvent>

	<networkChangeEvent startTime="06:01:18">
		<link refId="ed-2"/>
		<freespeed type="absolute" value="3.0"/>
	</networkChangeEvent>

	<networkChangeEvent startTime="06:01:19">
		<link refId="ed-2"/>
		<freespeed type="absolute" value="3.0"/>
	</networkChangeEvent>

	<networkChangeEvent startTime="06:01:20">
		<link refId="ed-2"/>
		<freespeed type="absolute" value="3.0"/>
	</networkChangeEvent>

	<networkChangeEvent startTime="06:01:21">
		<link refId="ed-2"/>
		<freespeed type="absolute" value="3.0"/>
	</networkChangeEvent>

	<networkChangeEvent startTime="06:01:22">
		<link refId="ed-2"/>
		<freespeed type="absolute" value="3.0"/>
	</networkChangeEvent>

	<networkChangeEvent startTime="06:01:23">
		<link refId="ed-2"/>
		<freespeed type="absolute" value="3.0"/>
	</networkChangeEvent>

	<networkChangeEvent startTime="06:01:24">
		<link refId="ed-2"/>
		<freespeed type="absolute" value="3.0"/>
	</networkChangeEvent>

	<networkChangeEvent startTime="06:01:25">
		<link refId="ed-2"/>
		<freespeed type="absolute" value="3.0"/>
	</networkChangeEvent>

	<networkChangeEvent startTime="06:01:26">
		<link refId="ed-2"/>
		<freespeed type="absolute" value="3.0"/>
	</networkChangeEvent>

	<networkChangeEvent startTime="06:01:27">
		<link refId="ed-2"/>
		<freespeed type="absolute" value="3.0"/>
	</networkChangeEvent>

	<networkChangeEvent startTime="06:01:28">
		<link refId="ed-2"/>
		<freespeed type="absolute" value="3.0"/>
	</networkChangeEvent>

	<networkChangeEvent startTime="06:01:29">
		<link refId="ed-2"/>
		<freespeed type="absolute" value="3.0"/>
	</networkChangeEvent>

	<networkChangeEvent startTime="06:01:30">
		<link refId="ed-2"/>
		<freespeed type="absolute" value="3.0"/>
	</networkChangeEvent>

	<networkChangeEvent startTime="06:01:31">
		<link refId="ed-2"/>
		<freespeed type="absolute" value="3.0"/>
	</networkChangeEvent>

	<networkChangeEvent startTime="06:01:32">
		<link refId="ed-2"/>
		<freespeed type="absolute" value="3.0"/>
	</networkChangeEvent>

	<networkChangeEvent startTime="06:01:33">
		<link refId="ed-2"/>
		<freespeed type="absolute" value="3.0"/>
	</networkChangeEvent>

	<networkChangeEvent startTime="06:01:34">
		<link refId="ed-2"/>
		<freespeed type="absolute" value="3.0"/>
	</networkChangeEvent>

	<networkChangeEvent startTime="06:01:35">
		<link refId="ed-2"/>
		<freespeed type="absolute" value="3.0"/>
	</networkChangeEvent>

	<networkChangeEvent startTime="06:01:36">
		<link refId="ed-2"/>
		<freespeed type="absolute" value="3.0"/>
	</networkChangeEvent>

	<networkChangeEvent startTime="06:01:37">
		<link refId="ed-2"/>
		<freespeed type="absolute" value="3.0"/>
	</networkChangeEvent>

	<networkChangeEvent startTime="06:01:38">
		<link refId="ed-2"/>
		<freespeed type="absolute" value="3.0"/>
	</networkChangeEvent>

	<networkChangeEvent startTime="06:01:39">
		<link refId="ed-2"/>
		<freespeed type="absolute" value="3.0"/>
	</networkChangeEvent>

	<networkChangeEvent startTime="06:01:40">
		<link refId="ed-2"/>
		<freespeed type="absolute" value="3.0"/>
	</networkChangeEvent>

	<networkChangeEvent startTime="06:01:41">
		<link refId="ed-2"/>
		<freespeed type="absolute" value="3.0"/>
	</networkChangeEvent>

	<networkChangeEvent startTime="06:01:42">
		<link refId="ed-2"/>
		<freespeed type="absolute" value="3.0"/>
	</networkChangeEvent>

	<networkChangeEvent startTime="06:01:43">
		<link refId="ed-2"/>
		<freespeed type="absolute" value="3.0"/>
	</networkChangeEvent>

	<networkChangeEvent startTime="06:01:44">
		<link refId="ed-2"/>
		<freespeed type="absolute" value="3.0"/>
	</networkChangeEvent>

	<networkChangeEvent startTime="06:01:45">
		<link refId="ed-2"/>
		<freespeed type="absolute" value="3.0"/>
	</networkChangeEvent>

	<networkChangeEvent startTime="06:01:46">
		<link refId="ed-2"/>
		<freespeed type="absolute" value="3.0"/>
	</networkChangeEvent>

	<networkChangeEvent startTime="06:01:47">
		<link refId="ed-2"/>
		<freespeed type="absolute" value="3.0"/>
	</networkChangeEvent>

	<networkChangeEvent startTime="06:01:48">
		<link refId="ed-2"/>
		<freespeed type="absolute" value="3.0"/>
	</networkChangeEvent>

	<networkChangeEvent startTime="06:01:49">
		<link refId="ed-2"/>
		<freespeed type="absolute" value="3.0"/>
	</networkChangeEvent>

	<networkChangeEvent startTime="06:01:50">
		<link refId="ed-2"/>
		<freespeed type="absolute" value="3.0"/>
	</networkChangeEvent>

	<networkChangeEvent startTime="06:01:51">
		<link refId="ed-2"/>
		<freespeed type="absolute" value="3.0"/>
	</networkChangeEvent>

	<networkChangeEvent startTime="06:01:52">
		<link refId="ed-2"/>
		<freespeed type="absolute" value="3.0"/>
	</networkChangeEvent>

	<networkChangeEvent startTime="06:01:53">
		<link refId="ed-2"/>
		<freespeed type="absolute" value="3.0"/>
	</networkChangeEvent>

	<networkChangeEvent startTime="06:01:54">
		<link refId="ed-2"/>
		<freespeed type="absolute" value="3.0"/>
	</networkChangeEvent>

	<networkChangeEvent startTime="06:01:55">
		<link refId="ed-2"/>
		<freespeed type="absolute" value="3.0"/>
	</networkChangeEvent>

	<networkChangeEvent startTime="06:01:56">
		<link refId="ed-2"/>
		<freespeed type="absolute" value="3.0"/>
	</networkChangeEvent>

	<networkChangeEvent startTime="06:01:57">
		<link refId="ed-2"/>
		<freespeed type="absolute" value="3.0"/>
	</networkChangeEvent>

	<networkChangeEvent startTime="06:01:58">
		<link refId="ed-2"/>
		<freespeed type="absolute" value="3.0"/>
	</networkChangeEvent>

	<networkChangeEvent startTime="06:01:59">
		<link refId="ed-2"/>
		<freespeed type="absolute" value="3.0"/>
	</networkChangeEvent>

	<networkChangeEvent startTime="06:02:00">
		<link refId="ed-2"/>
		<freespeed type="absolute" value="3.0"/>
	</networkChangeEvent>

	<networkChangeEvent startTime="06:02:01">
		<link refId="ed-2"/>
		<freespeed type="absolute" value="3.0"/>
	</networkChangeEvent>

	<networkChangeEvent startTime="06:02:02">
		<link refId="ed-2"/>
		<freespeed type="absolute" value="3.0"/>
	</networkChangeEvent>

	<networkChangeEvent startTime="06:02:03">
		<link refId="ed-2"/>
		<freespeed type="absolute" value="3.0"/>
	</networkChangeEvent>

	<networkChangeEvent startTime="06:02:04">
		<link refId="ed-2"/>
		<freespeed type="absolute" value="3.0"/>
	</networkChangeEvent>

	<networkChangeEvent startTime="06:02:05">
		<link refId="ed-2"/>
		<freespeed type="absolute" value="3.0"/>
	</networkChangeEvent>

	<networkChangeEvent startTime="06:02:06">
		<link refId="ed-2"/>
		<freespeed type="absolute" value="3.0"/>
	</networkChangeEvent>

	<networkChangeEvent startTime="06:02:07">
		<link refId="ed-2"/>
		<freespeed type="absolute" value="3.0"/>
	</networkChangeEvent>

	<networkChangeEvent startTime="06:02:08">
		<link refId="ed-2"/>
		<freespeed type="absolute" value="3.0"/>
	</networkChangeEvent>

	<networkChangeEvent startTime="06:02:09">
		<link refId="ed-2"/>
		<freespeed type="absolute" value="3.0"/>
	</networkChangeEvent>

	<networkChangeEvent startTime="06:02:10">
		<link refId="ed-2"/>
		<freespeed type="absolute" value="3.0"/>
	</networkChangeEvent>

	<networkChangeEvent startTime="06:02:11">
		<link refId="ed-2"/>
		<freespeed type="absolute" value="3.0"/>
	</networkChangeEvent>

	<networkChangeEvent startTime="06:02:12">
		<link refId="ed-2"/>
		<freespeed type="absolute" value="3.0"/>
	</networkChangeEvent>

	<networkChangeEvent startTime="06:02:13">
		<link refId="ed-2"/>
		<freespeed type="absolute" value="3.0"/>
	</networkChangeEvent>

	<networkChangeEvent startTime="06:02:14">
		<link refId="ed-2"/>
		<freespeed type="absolute" value="3.0"/>
	</networkChangeEvent>

	<networkChangeEvent startTime="06:02:15">
		<link refId="ed-2"/>
		<freespeed type="absolute" value="3.0"/>
	</networkChangeEvent>

	<networkChangeEvent startTime="06:02:16">
		<link refId="ed-2"/>
		<freespeed type="absolute" value="3.0"/>
	</networkChangeEvent>

	<networkChangeEvent startTime="06:02:17">
		<link refId="ed-2"/>
		<freespeed type="absolute" value="3.0"/>
	</networkChangeEvent>

	<networkChangeEvent startTime="06:02:18">
		<link refId="ed-2"/>
		<freespeed type="absolute" value="3.0"/>
	</networkChangeEvent>

	<networkChangeEvent startTime="06:02:19">
		<link refId="ed-2"/>
		<freespeed type="absolute" value="3.0"/>
	</networkChangeEvent>

	<networkChangeEvent startTime="06:02:20">
		<link refId="ed-2"/>
		<freespeed type="absolute" value="3.0"/>
	</networkChangeEvent>

	<networkChangeEvent startTime="06:02:21">
		<link refId="ed-2"/>
		<freespeed type="absolute" value="3.0"/>
	</networkChangeEvent>

	<networkChangeEvent startTime="06:02:22">
		<link refId="ed-2"/>
		<freespeed type="absolute" value="3.0"/>
	</networkChangeEvent>

	<networkChangeEvent startTime="06:02:23">
		<link refId="ed-2"/>
		<freespeed type="absolute" value="3.0"/>
	</networkChangeEvent>

	<networkChangeEvent startTime="06:02:24">
		<link refId="ed-2"/>
		<freespeed type="absolute" value="3.0"/>
	</networkChangeEvent>

	<networkChangeEvent startTime="06:02:25">
		<link refId="ed-2"/>
		<freespeed type="absolute" value="3.0"/>
	</networkChangeEvent>

	<networkChangeEvent startTime="06:02:26">
		<link refId="ed-2"/>
		<freespeed type="absolute" value="3.0"/>
	</networkChangeEvent>

	<networkChangeEvent startTime="06:02:27">
		<link refId="ed-2"/>
		<freespeed type="absolute" value="3.0"/>
	</networkChangeEvent>

	<networkChangeEvent startTime="06:02:28">
		<link refId="ed-2"/>
		<freespeed type="absolute" value="3.0"/>
	</networkChangeEvent>

	<networkChangeEvent startTime="06:02:29">
		<link refId="ed-2"/>
		<freespeed type="absolute" value="3.0"/>
	</networkChangeEvent>

	<networkChangeEvent startTime="06:02:30">
		<link refId="ed-2"/>
		<freespeed type="absolute" value="3.0"/>
	</networkChangeEvent>

	<networkChangeEvent startTime="06:02:31">
		<link refId="ed-2"/>
		<freespeed type="absolute" value="3.0"/>
	</networkChangeEvent>

	<networkChangeEvent startTime="06:02:32">
		<link refId="ed-2"/>
		<freespeed type="absolute" value="3.0"/>
	</networkChangeEvent>

	<networkChangeEvent startTime="06:02:33">
		<link refId="ed-2"/>
		<freespeed type="absolute" value="3.0"/>
	</networkChangeEvent>

	<networkChangeEvent startTime="06:02:34">
		<link refId="ed-2"/>
		<freespeed type="absolute" value="3.0"/>
	</networkChangeEvent>

	<networkChangeEvent startTime="06:02:35">
		<link refId="ed-2"/>
		<freespeed type="absolute" value="3.0"/>
	</networkChangeEvent>

	<networkChangeEvent startTime="06:02:36">
		<link refId="ed-2"/>
		<freespeed type="absolute" value="3.0"/>
	</networkChangeEvent>

	<networkChangeEvent startTime="06:02:37">
		<link refId="ed-2"/>
		<freespeed type="absolute" value="3.0"/>
	</networkChangeEvent>

	<networkChangeEvent startTime="06:02:38">
		<link refId="ed-2"/>
		<freespeed type="absolute" value="3.0"/>
	</networkChangeEvent>

	<networkChangeEvent startTime="06:02:39">
		<link refId="ed-2"/>
		<freespeed type="absolute" value="3.0"/>
	</networkChangeEvent>

	<networkChangeEvent startTime="06:02:40">
		<link refId="ed-2"/>
		<freespeed type="absolute" value="3.0"/>
	</networkChangeEvent>

	<networkChangeEvent startTime="06:02:41">
		<link refId="ed-2"/>
		<freespeed type="absolute" value="3.0"/>
	</networkChangeEvent>

	<networkChangeEvent startTime="06:02:42">
		<link refId="ed-2"/>
		<freespeed type="absolute" value="3.0"/>
	</networkChangeEvent>

	<networkChangeEvent startTime="06:02:43">
		<link refId="ed-2"/>
		<freespeed type="absolute" value="3.0"/>
	</networkChangeEvent>

	<networkChangeEvent startTime="06:02:44">
		<link refId="ed-2"/>
		<freespeed type="absolute" value="3.0"/>
	</networkChangeEvent>

	<networkChangeEvent startTime="06:02:45">
		<link refId="ed-2"/>
		<freespeed type="absolute" value="3.0"/>
	</networkChangeEvent>

	<networkChangeEvent startTime="06:02:46">
		<link refId="ed-2"/>
		<freespeed type="absolute" value="3.0"/>
	</networkChangeEvent>

	<networkChangeEvent startTime="06:02:47">
		<link refId="ed-2"/>
		<freespeed type="absolute" value="3.0"/>
	</networkChangeEvent>

	<networkChangeEvent startTime="06:02:48">
		<link refId="ed-2"/>
		<freespeed type="absolute" value="3.0"/>
	</networkChangeEvent>

	<networkChangeEvent startTime="06:02:49">
		<link refId="ed-2"/>
		<freespeed type="absolute" value="3.0"/>
	</networkChangeEvent>

	<networkChangeEvent startTime="06:02:50">
		<link refId="ed-2"/>
		<freespeed type="absolute" value="3.0"/>
	</networkChangeEvent>

	<networkChangeEvent startTime="06:02:51">
		<link refId="ed-2"/>
		<freespeed type="absolute" value="3.0"/>
	</networkChangeEvent>

	<networkChangeEvent startTime="06:02:52">
		<link refId="ed-2"/>
		<freespeed type="absolute" value="3.0"/>
	</networkChangeEvent>

	<networkChangeEvent startTime="06:02:53">
		<link refId="ed-2"/>
		<freespeed type="absolute" value="3.0"/>
	</networkChangeEvent>

	<networkChangeEvent startTime="06:02:54">
		<link refId="ed-2"/>
		<freespeed type="absolute" value="3.0"/>
	</networkChangeEvent>

	<networkChangeEvent startTime="06:02:55">
		<link refId="ed-2"/>
		<freespeed type="absolute" value="3.0"/>
	</networkChangeEvent>

	<networkChangeEvent startTime="06:02:56">
		<link refId="ed-2"/>
		<freespeed type="absolute" value="3.0"/>
	</networkChangeEvent>

	<networkChangeEvent startTime="06:02:57">
		<link refId="ed-2"/>
		<freespeed type="absolute" value="3.0"/>
	</networkChangeEvent>

	<networkChangeEvent startTime="06:02:58">
		<link refId="ed-2"/>
		<freespeed type="absolute" value="3.0"/>
	</networkChangeEvent>

	<networkChangeEvent startTime="06:02:59">
		<link refId="ed-2"/>
		<freespeed type="absolute" value="3.0"/>
	</networkChangeEvent>

	<networkChangeEvent startTime="06:03:00">
		<link refId="ed-2"/>
		<freespeed type="absolute" value="3.0"/>
	</networkChangeEvent>

	<networkChangeEvent startTime="06:03:01">
		<link refId="ed-2"/>
		<freespeed type="absolute" value="3.0"/>
	</networkChangeEvent>

	<networkChangeEvent startTime="06:03:02">
		<link refId="ed-2"/>
		<freespeed type="absolute" value="3.0"/>
	</networkChangeEvent>

	<networkChangeEvent startTime="06:03:03">
		<link refId="ed-2"/>
		<freespeed type="absolute" value="3.0"/>
	</networkChangeEvent>

	<networkChangeEvent startTime="06:03:04">
		<link refId="ed-2"/>
		<freespeed type="absolute" value="3.0"/>
	</networkChangeEvent>

	<networkChangeEvent startTime="06:03:05">
		<link refId="ed-2"/>
		<freespeed type="absolute" value="3.0"/>
	</networkChangeEvent>

	<networkChangeEvent startTime="06:03:06">
		<link refId="ed-2"/>
		<freespeed type="absolute" value="3.0"/>
	</networkChangeEvent>

	<networkChangeEvent startTime="06:03:07">
		<link refId="ed-2"/>
		<freespeed type="absolute" value="3.0"/>
	</networkChangeEvent>

	<networkChangeEvent startTime="06:03:08">
		<link refId="ed-2"/>
		<freespeed type="absolute" value="3.0"/>
	</networkChangeEvent>

	<networkChangeEvent startTime="06:03:09">
		<link refId="ed-2"/>
		<freespeed type="absolute" value="3.0"/>
	</networkChangeEvent>

	<networkChangeEvent startTime="06:03:10">
		<link refId="ed-2"/>
		<freespeed type="absolute" value="3.0"/>
	</networkChangeEvent>

	<networkChangeEvent startTime="06:03:11">
		<link refId="ed-2"/>
		<freespeed type="absolute" value="3.0"/>
	</networkChangeEvent>

	<networkChangeEvent startTime="06:03:12">
		<link refId="ed-2"/>
		<freespeed type="absolute" value="3.0"/>
	</networkChangeEvent>

	<networkChangeEvent startTime="06:03:13">
		<link refId="ed-2"/>
		<freespeed type="absolute" value="3.0"/>
	</networkChangeEvent>

	<networkChangeEvent startTime="06:03:14">
		<link refId="ed-2"/>
		<freespeed type="absolute" value="3.0"/>
	</networkChangeEvent>

	<networkChangeEvent startTime="06:03:15">
		<link refId="ed-2"/>
		<freespeed type="absolute" value="3.0"/>
	</networkChangeEvent>

	<networkChangeEvent startTime="06:03:16">
		<link refId="ed-2"/>
		<freespeed type="absolute" value="3.0"/>
	</networkChangeEvent>

	<networkChangeEvent startTime="06:03:17">
		<link refId="ed-2"/>
		<freespeed type="absolute" value="3.0"/>
	</networkChangeEvent>

	<networkChangeEvent startTime="06:03:18">
		<link refId="ed-2"/>
		<freespeed type="absolute" value="3.0"/>
	</networkChangeEvent>

	<networkChangeEvent startTime="06:03:19">
		<link refId="ed-2"/>
		<freespeed type="absolute" value="3.0"/>
	</networkChangeEvent>

	<networkChangeEvent startTime="06:03:20">
		<link refId="ed-2"/>
		<freespeed type="absolute" value="3.0"/>
	</networkChangeEvent>

	<networkChangeEvent startTime="06:03:21">
		<link refId="ed-2"/>
		<freespeed type="absolute" value="3.0"/>
	</networkChangeEvent>

	<networkChangeEvent startTime="06:03:22">
		<link refId="ed-2"/>
		<freespeed type="absolute" value="3.0"/>
	</networkChangeEvent>

	<networkChangeEvent startTime="06:03:23">
		<link refId="ed-2"/>
		<freespeed type="absolute" value="3.0"/>
	</networkChangeEvent>

	<networkChangeEvent startTime="06:03:24">
		<link refId="ed-2"/>
		<freespeed type="absolute" value="3.0"/>
	</networkChangeEvent>

	<networkChangeEvent startTime="06:03:25">
		<link refId="ed-2"/>
		<freespeed type="absolute" value="3.0"/>
	</networkChangeEvent>

	<networkChangeEvent startTime="06:03:26">
		<link refId="ed-2"/>
		<freespeed type="absolute" value="3.0"/>
	</networkChangeEvent>

	<networkChangeEvent startTime="06:03:27">
		<link refId="ed-2"/>
		<freespeed type="absolute" value="3.0"/>
	</networkChangeEvent>

	<networkChangeEvent startTime="06:03:28">
		<link refId="ed-2"/>
		<freespeed type="absolute" value="3.0"/>
	</networkChangeEvent>

	<networkChangeEvent startTime="06:03:29">
		<link refId="ed-2"/>
		<freespeed type="absolute" value="3.0"/>
	</networkChangeEvent>

	<networkChangeEvent startTime="06:03:30">
		<link refId="ed-2"/>
		<freespeed type="absolute" value="3.0"/>
	</networkChangeEvent>

	<networkChangeEvent startTime="06:03:31">
		<link refId="ed-2"/>
		<freespeed type="absolute" value="3.0"/>
	</networkChangeEvent>

	<networkChangeEvent startTime="06:03:32">
		<link refId="ed-2"/>
		<freespeed type="absolute" value="3.0"/>
	</networkChangeEvent>

	<networkChangeEvent startTime="06:03:33">
		<link refId="ed-2"/>
		<freespeed type="absolute" value="3.0"/>
	</networkChangeEvent>

	<networkChangeEvent startTime="06:03:34">
		<link refId="ed-2"/>
		<freespeed type="absolute" value="3.0"/>
	</networkChangeEvent>

	<networkChangeEvent startTime="06:03:35">
		<link refId="ed-2"/>
		<freespeed type="absolute" value="3.0"/>
	</networkChangeEvent>

	<networkChangeEvent startTime="06:03:36">
		<link refId="ed-2"/>
		<freespeed type="absolute" value="3.0"/>
	</networkChangeEvent>

	<networkChangeEvent startTime="06:03:37">
		<link refId="ed-2"/>
		<freespeed type="absolute" value="3.0"/>
	</networkChangeEvent>

	<networkChangeEvent startTime="06:03:38">
		<link refId="ed-2"/>
		<freespeed type="absolute" value="3.0"/>
	</networkChangeEvent>

	<networkChangeEvent startTime="06:03:39">
		<link refId="ed-2"/>
		<freespeed type="absolute" value="3.0"/>
	</networkChangeEvent>

	<networkChangeEvent startTime="06:03:40">
		<link refId="ed-2"/>
		<freespeed type="absolute" value="3.0"/>
	</networkChangeEvent>

	<networkChangeEvent startTime="06:03:41">
		<link refId="ed-2"/>
		<freespeed type="absolute" value="3.0"/>
	</networkChangeEvent>

	<networkChangeEvent startTime="06:03:42">
		<link refId="ed-2"/>
		<freespeed type="absolute" value="3.0"/>
	</networkChangeEvent>

	<networkChangeEvent startTime="06:03:43">
		<link refId="ed-2"/>