<?xml version="1.0" encoding="UTF-8"?><!DOCTYPE plans SYSTEM "http://www.matsim.org/files/dtd/plans_v4.dtd">
<plans>
	<person id="16_1_0">
		<plan>
			<act type="home" link="-169697_0" end_time="07:00:26" />
			<leg mode="car">
				<route> </route>
			</leg>
			<act type="work" link="-164921_4_r" end_time="19:00:26" />
			<leg mode="car">
				<route> </route>
			</leg>
			<act type="home" link="-169697_0"/>
		</plan>
	</person>
	<person id="14_2_0">
		<plan>
			<act type="home" link="-114467_7" end_time="11:00:22" />
			<leg mode="car">
				<route> </route>
			</leg>
			<act type="work" link="-126567_0" end_time="23:00:22" />
			<leg mode="car">
				<route> </route>
			</leg>
			<act type="home" link="-114467_7"/>
		</plan>
	</person>
	<person id="14_2_1">
		<plan>
			<act type="home" link="-106283_1" end_time="11:47:25" />
			<leg mode="car">
				<route> </route>
			</leg>
			<act type="work" link="-106283_3" end_time="23:47:25" />
			<leg mode="car">
				<route> </route>
			</leg>
			<act type="home" link="-106283_1"/>
		</plan>
	</person>
	<person id="14_2_2">
		<plan>
			<act type="home" link="-106283_5" end_time="11:48:03" />
			<leg mode="car">
				<route> </route>
			</leg>
			<act type="work" link="-118589_3" end_time="23:48:03" />
			<leg mode="car">
				<route> </route>
			</leg>
			<act type="home" link="-106283_5"/>
		</plan>
	</person>
	<person id="14_2_3">
		<plan>
			<act type="home" link="-118589_6" end_time="11:49:07" />
			<leg mode="car">
				<route> </route>
			</leg>
			<act type="work" link="-130323_1" end_time="23:49:07" />
			<leg mode="car">
				<route> </route>
			</leg>
			<act type="home" link="-118589_6"/>
		</plan>
	</person>
	<person id="14_2_4">
		<plan>
			<act type="home" link="-130323_3" end_time="11:50:01" />
			<leg mode="car">
				<route> </route>
			</leg>
			<act type="work" link="-130323_11" end_time="23:50:01" />
			<leg mode="car">
				<route> </route>
			</leg>
			<act type="home" link="-130323_3"/>
		</plan>
	</person>
	<person id="14_2_5">
		<plan>
			<act type="home" link="-130323_13" end_time="11:50:52" />
			<leg mode="car">
				<route> </route>
			</leg>
			<act type="work" link="-147665_9" end_time="23:50:52" />
			<leg mode="car">
				<route> </route>
			</leg>
			<act type="home" link="-130323_13"/>
		</plan>
	</person>
	<person id="14_2_6">
		<plan>
			<act type="home" link="-147665_11" end_time="11:52:38" />
			<leg mode="car">
				<route> </route>
			</leg>
			<act type="work" link="-106281_0" end_time="23:52:38" />
			<leg mode="car">
				<route> </route>
			</leg>
			<act type="home" link="-147665_11"/>
		</plan>
	</person>
	<person id="14_2_7">
		<plan>
			<act type="home" link="-106281_2" end_time="11:53:38" />
			<leg mode="car">
				<route> </route>
			</leg>
			<act type="work" link="-106281_3" end_time="23:53:38" />
			<leg mode="car">
				<route> </route>
			</leg>
			<act type="home" link="-106281_2"/>
		</plan>
	</person>
	<person id="14_2_8">
		<plan>
			<act type="home" link="-106281_5" end_time="11:53:42" />
			<leg mode="car">
				<route> </route>
			</leg>
			<act type="work" link="-106281_8" end_time="23:53:42" />
			<leg mode="car">
				<route> </route>
			</leg>
			<act type="home" link="-106281_5"/>
		</plan>
	</person>
	<person id="14_2_9">
		<plan>
			<act type="home" link="-106281_10" end_time="11:54:02" />
			<leg mode="car">
				<route> </route>
			</leg>
			<act type="work" link="-106281_16" end_time="23:54:02" />
			<leg mode="car">
				<route> </route>
			</leg>
			<act type="home" link="-106281_10"/>
		</plan>
	</person>
	<person id="14_2_10">
		<plan>
			<act type="home" link="-106281_18" end_time="11:54:26" />
			<leg mode="car">
				<route> </route>
			</leg>
			<act type="work" link="-158803_0_r" end_time="23:54:26" />
			<leg mode="car">
				<route> </route>
			</leg>
			<act type="home" link="-106281_18"/>
		</plan>
	</person>
	<person id="14_1_0">
		<plan>
			<act type="home" link="-158803_0_r" end_time="07:00:22" />
			<leg mode="car">
				<route> </route>
			</leg>
			<act type="work" link="-146605_2" end_time="19:00:22" />
			<leg mode="car">
				<route> </route>
			</leg>
			<act type="home" link="-158803_0_r"/>
		</plan>
	</person>
	<person id="14_1_1">
		<plan>
			<act type="home" link="-111691_3" end_time="07:47:16" />
			<leg mode="car">
				<route> </route>
			</leg>
			<act type="work" link="-111691_3" end_time="19:47:16" />
			<leg mode="car">
				<route> </route>
			</leg>
			<act type="home" link="-111691_3"/>
		</plan>
	</person>
	<person id="14_1_2">
		<plan>
			<act type="home" link="-111691_5" end_time="07:43:24" />
			<leg mode="car">
				<route> </route>
			</leg>
			<act type="work" link="-111691_5" end_time="19:43:24" />
			<leg mode="car">
				<route> </route>
			</leg>
			<act type="home" link="-111691_5"/>
		</plan>
	</person>
	<person id="14_1_3">
		<plan>
			<act type="home" link="-135749_1" end_time="07:43:49" />
			<leg mode="car">
				<route> </route>
			</leg>
			<act type="work" link="-135749_4" end_time="19:43:49" />
			<leg mode="car">
				<route> </route>
			</leg>
			<act type="home" link="-135749_1"/>
		</plan>
	</person>
	<person id="14_1_4">
		<plan>
			<act type="home" link="-135749_7" end_time="07:44:21" />
			<leg mode="car">
				<route> </route>
			</leg>
			<act type="work" link="-135749_10" end_time="19:44:21" />
			<leg mode="car">
				<route> </route>
			</leg>
			<act type="home" link="-135749_7"/>
		</plan>
	</person>
	<person id="14_1_5">
		<plan>
			<act type="home" link="-135749_12" end_time="07:45:42" />
			<leg mode="car">
				<route> </route>
			</leg>
			<act type="work" link="-139367_3" end_time="19:45:42" />
			<leg mode="car">
				<route> </route>
			</leg>
			<act type="home" link="-135749_12"/>
		</plan>
	</person>
	<person id="14_1_6">
		<plan>
			<act type="home" link="-121075_0" end_time="07:47:02" />
			<leg mode="car">
				<route> </route>
			</leg>
			<act type="work" link="-121075_3" end_time="19:47:02" />
			<leg mode="car">
				<route> </route>
			</leg>
			<act type="home" link="-121075_0"/>
		</plan>
	</person>
	<person id="14_1_7">
		<plan>
			<act type="home" link="-118587_1" end_time="07:47:10" />
			<leg mode="car">
				<route> </route>
			</leg>
			<act type="work" link="-118587_2" end_time="19:47:10" />
			<leg mode="car">
				<route> </route>
			</leg>
			<act type="home" link="-118587_1"/>
		</plan>
	</person>
	<person id="14_1_8">
		<plan>
			<act type="home" link="-118587_4" end_time="07:47:30" />
			<leg mode="car">
				<route> </route>
			</leg>
			<act type="work" link="-118587_6" end_time="19:47:30" />
			<leg mode="car">
				<route> </route>
			</leg>
			<act type="home" link="-118587_4"/>
		</plan>
	</person>
	<person id="14_1_9">
		<plan>
			<act type="home" link="-118587_8" end_time="07:47:55" />
			<leg mode="car">
				<route> </route>
			</leg>
			<act type="work" link="-123605_8" end_time="19:47:55" />
			<leg mode="car">
				<route> </route>
			</leg>
			<act type="home" link="-118587_8"/>
		</plan>
	</person>
	<person id="14_1_10">
		<plan>
			<act type="home" link="-125327_0" end_time="07:49:53" />
			<leg mode="car">
				<route> </route>
			</leg>
			<act type="work" link="-114467_7" end_time="19:49:53" />
			<leg mode="car">
				<route> </route>
			</leg>
			<act type="home" link="-125327_0"/>
		</plan>
	</person>
	<person id="12_2_0">
		<plan>
			<act type="home" link="-129655_0" end_time="11:00:19" />
			<leg mode="car">
				<route> </route>
			</leg>
			<act type="work" link="-169121_27_r" end_time="23:00:19" />
			<leg mode="car">
				<route> </route>
			</leg>
			<act type="home" link="-129655_0"/>
		</plan>
	</person>
	<person id="12_1_0">
		<plan>
			<act type="home" link="-169121_27_r" end_time="07:00:19" />
			<leg mode="car">
				<route> </route>
			</leg>
			<act type="work" link="-129655_0" end_time="19:00:19" />
			<leg mode="car">
				<route> </route>
			</leg>
			<act type="home" link="-169121_27_r"/>
		</plan>
	</person>
	<person id="10_2_0">
		<plan>
			<act type="home" link="-159825_8" end_time="11:00:17" />
			<leg mode="car">
				<route> </route>
			</leg>
			<act type="work" link="-130607_7" end_time="23:00:17" />
			<leg mode="car">
				<route> </route>
			</leg>
			<act type="home" link="-159825_8"/>
		</plan>
	</person>
	<person id="10_1_0">
		<plan>
			<act type="home" link="-130607_7" end_time="07:00:17" />
			<leg mode="car">
				<route> </route>
			</leg>
			<act type="work" link="-159825_8" end_time="19:00:17" />
			<leg mode="car">
				<route> </route>
			</leg>
			<act type="home" link="-130607_7"/>
		</plan>
	</person>
	<person id="18_2_0">
		<plan>
			<act type="home" link="-156637_0_r" end_time="11:00:30" />
			<leg mode="car">
				<route> </route>
			</leg>
			<act type="work" link="-158353_4" end_time="23:00:30" />
			<leg mode="car">
				<route> </route>
			</leg>
			<act type="home" link="-156637_0_r"/>
		</plan>
	</person>
	<person id="18_1_0">
		<plan>
			<act type="home" link="-158353_4" end_time="07:00:30" />
			<leg mode="car">
				<route> </route>
			</leg>
			<act type="work" link="-156637_0_r" end_time="19:00:30" />
			<leg mode="car">
				<route> </route>
			</leg>
			<act type="home" link="-158353_4"/>
		</plan>
	</person>
	<person id="16_2_0">
		<plan>
			<act type="home" link="-164921_4_r" end_time="11:00:26" />
			<leg mode="car">
				<route> </route>
			</leg>
			<act type="work" link="-169697_0" end_time="23:00:26" />
			<leg mode="car">
				<route> </route>
			</leg>
			<act type="home" link="-164921_4_r"/>
		</plan>
	</person>
	<person id="27_1_0">
		<plan>
			<act type="home" link="-156707_4" end_time="07:00:47" />
			<leg mode="car">
				<route> </route>
			</leg>
			<act type="work" link="-146605_2" end_time="19:00:47" />
			<leg mode="car">
				<route> </route>
			</leg>
			<act type="home" link="-156707_4"/>
		</plan>
	</person>
	<person id="27_1_1">
		<plan>
			<act type="home" link="-110769_4_r" end_time="07:55:51" />
			<leg mode="car">
				<route> </route>
			</leg>
			<act type="work" link="-117257_0_r" end_time="19:55:51" />
			<leg mode="car">
				<route> </route>
			</leg>
			<act type="home" link="-110769_4_r"/>
		</plan>
	</person>
	<person id="27_1_2">
		<plan>
			<act type="home" link="-113993_0_r" end_time="07:57:54" />
			<leg mode="car">
				<route> </route>
			</leg>
			<act type="work" link="-117471_0" end_time="19:57:54" />
			<leg mode="car">
				<route> </route>
			</leg>
			<act type="home" link="-113993_0_r"/>
		</plan>
	</person>
	<person id="25_2_0">
		<plan>
			<act type="home" link="-169099_19_r" end_time="11:00:39" />
			<leg mode="car">
				<route> </route>
			</leg>
			<act type="work" link="-149637_0_r" end_time="23:00:39" />
			<leg mode="car">
				<route> </route>
			</leg>
			<act type="home" link="-169099_19_r"/>
		</plan>
	</person>
	<person id="25_1_0">
		<plan>
			<act type="home" link="-149637_0_r" end_time="07:00:39" />
			<leg mode="car">
				<route> </route>
			</leg>
			<act type="work" link="-169099_19_r" end_time="19:00:39" />
			<leg mode="car">
				<route> </route>
			</leg>
			<act type="home" link="-149637_0_r"/>
		</plan>
	</person>
	<person id="1_1_0">
		<plan>
			<act type="home" link="-160751_3_r" end_time="07:00:02" />
			<leg mode="car">
				<route> </route>
			</leg>
			<act type="work" link="-161653_5_r" end_time="19:00:02" />
			<leg mode="car">
				<route> </route>
			</leg>
			<act type="home" link="-160751_3_r"/>
		</plan>
	</person>
	<person id="23_2_0">
		<plan>
			<act type="home" link="-162149_0" end_time="11:00:35" />
			<leg mode="car">
				<route> </route>
			</leg>
			<act type="work" link="-167261_3" end_time="23:00:35" />
			<leg mode="car">
				<route> </route>
			</leg>
			<act type="home" link="-162149_0"/>
		</plan>
	</person>
	<person id="23_1_0">
		<plan>
			<act type="home" link="-167261_3" end_time="07:00:35" />
			<leg mode="car">
				<route> </route>
			</leg>
			<act type="work" link="-162149_0" end_time="19:00:35" />
			<leg mode="car">
				<route> </route>
			</leg>
			<act type="home" link="-167261_3"/>
		</plan>
	</person>
	<person id="1_2_0">
		<plan>
			<act type="home" link="-161653_5_r" end_time="11:00:02" />
			<leg mode="car">
				<route> </route>
			</leg>
			<act type="work" link="-160751_3_r" end_time="23:00:02" />
			<leg mode="car">
				<route> </route>
			</leg>
			<act type="home" link="-161653_5_r"/>
		</plan>
	</person>
	<person id="3_1_0">
		<plan>
			<act type="home" link="-111005_0" end_time="07:00:05" />
			<leg mode="car">
				<route> </route>
			</leg>
			<act type="work" link="-146605_2" end_time="19:00:05" />
			<leg mode="car">
				<route> </route>
			</leg>
			<act type="home" link="-111005_0"/>
		</plan>
	</person>
	<person id="3_1_1">
		<plan>
			<act type="home" link="-111691_3" end_time="07:27:44" />
			<leg mode="car">
				<route> </route>
			</leg>
			<act type="work" link="-111691_3" end_time="19:27:44" />
			<leg mode="car">
				<route> </route>
			</leg>
			<act type="home" link="-111691_3"/>
		</plan>
	</person>
	<person id="3_1_2">
		<plan>
			<act type="home" link="-111691_5" end_time="07:24:46" />
			<leg mode="car">
				<route> </route>
			</leg>
			<act type="work" link="-111691_5" end_time="19:24:46" />
			<leg mode="car">
				<route> </route>
			</leg>
			<act type="home" link="-111691_5"/>
		</plan>
	</person>
	<person id="3_1_3">
		<plan>
			<act type="home" link="-135749_1" end_time="07:25:10" />
			<leg mode="car">
				<route> </route>
			</leg>
			<act type="work" link="-135749_4" end_time="19:25:10" />
			<leg mode="car">
				<route> </route>
			</leg>
			<act type="home" link="-135749_1"/>
		</plan>
	</person>
	<person id="3_1_4">
		<plan>
			<act type="home" link="-135749_7" end_time="07:25:43" />
			<leg mode="car">
				<route> </route>
			</leg>
			<act type="work" link="-135749_10" end_time="19:25:43" />
			<leg mode="car">
				<route> </route>
			</leg>
			<act type="home" link="-135749_7"/>
		</plan>
	</person>
	<person id="3_1_5">
		<plan>
			<act type="home" link="-135749_12" end_time="07:27:06" />
			<leg mode="car">
				<route> </route>
			</leg>
			<act type="work" link="-139367_3" end_time="19:27:06" />
			<leg mode="car">
				<route> </route>
			</leg>
			<act type="home" link="-135749_12"/>
		</plan>
	</person>
	<person id="3_1_6">
		<plan>
			<act type="home" link="-121075_0" end_time="07:28:25" />
			<leg mode="car">
				<route> </route>
			</leg>
			<act type="work" link="-121075_3" end_time="19:28:25" />
			<leg mode="car">
				<route> </route>
			</leg>
			<act type="home" link="-121075_0"/>
		</plan>
	</person>
	<person id="3_1_7">
		<plan>
			<act type="home" link="-118587_1" end_time="07:28:32" />
			<leg mode="car">
				<route> </route>
			</leg>
			<act type="work" link="-118587_2" end_time="19:28:32" />
			<leg mode="car">
				<route> </route>
			</leg>
			<act type="home" link="-118587_1"/>
		</plan>
	</person>
	<person id="3_1_8">
		<plan>
			<act type="home" link="-118587_4" end_time="07:28:53" />
			<leg mode="car">
				<route> </route>
			</leg>
			<act type="work" link="-118587_6" end_time="19:28:53" />
			<leg mode="car">
				<route> </route>
			</leg>
			<act type="home" link="-118587_4"/>
		</plan>
	</person>
	<person id="3_1_9">
		<plan>
			<act type="home" link="-118587_8" end_time="07:29:16" />
			<leg mode="car">
				<route> </route>
			</leg>
			<act type="work" link="-148853_3" end_time="19:29:16" />
			<leg mode="car">
				<route> </route>
			</leg>
			<act type="home" link="-118587_8"/>
		</plan>
	</person>
	<person id="3_1_10">
		<plan>
			<act type="home" link="-118591_14" end_time="07:30:14" />
			<leg mode="car">
				<route> </route>
			</leg>
			<act type="work" link="-117037_0" end_time="19:30:14" />
			<leg mode="car">
				<route> </route>
			</leg>
			<act type="home" link="-118591_14"/>
		</plan>
	</person>
	<person id="21_2_0">
		<plan>
			<act type="home" link="-110835_1_r" end_time="11:00:33" />
			<leg mode="car">
				<route> </route>
			</leg>
			<act type="work" link="-131685_0_r" end_time="23:00:33" />
			<leg mode="car">
				<route> </route>
			</leg>
			<act type="home" link="-110835_1_r"/>
		</plan>
	</person>
	<person id="21_1_0">
		<plan>
			<act type="home" link="-131685_0_r" end_time="07:00:33" />
			<leg mode="car">
				<route> </route>
			</leg>
			<act type="work" link="-111687_12" end_time="19:00:33" />
			<leg mode="car">
				<route> </route>
			</leg>
			<act type="home" link="-131685_0_r"/>
		</plan>
	</person>
	<person id="21_1_1">
		<plan>
			<act type="home" link="-146225_1" end_time="07:35:22" />
			<leg mode="car">
				<route> </route>
			</leg>
			<act type="work" link="-143941_4" end_time="19:35:22" />
			<leg mode="car">
				<route> </route>
			</leg>
			<act type="home" link="-146225_1"/>
		</plan>
	</person>
	<person id="21_1_2">
		<plan>
			<act type="home" link="-143941_6" end_time="07:37:04" />
			<leg mode="car">
				<route> </route>
			</leg>
			<act type="work" link="-110835_1_r" end_time="19:37:04" />
			<leg mode="car">
				<route> </route>
			</leg>
			<act type="home" link="-143941_6"/>
		</plan>
	</person>
	<person id="3_2_0">
		<plan>
			<act type="home" link="-117037_0" end_time="11:00:05" />
			<leg mode="car">
				<route> </route>
			</leg>
			<act type="work" link="-137325_0_r" end_time="23:00:05" />
			<leg mode="car">
				<route> </route>
			</leg>
			<act type="home" link="-117037_0"/>
		</plan>
	</person>
	<person id="3_2_1">
		<plan>
			<act type="home" link="-136773_1" end_time="11:51:32" />
			<leg mode="car">
				<route> </route>
			</leg>
			<act type="work" link="-106281_0" end_time="23:51:32" />
			<leg mode="car">
				<route> </route>
			</leg>
			<act type="home" link="-136773_1"/>
		</plan>
	</person>
	<person id="3_2_2">
		<plan>
			<act type="home" link="-106281_2" end_time="11:52:57" />
			<leg mode="car">
				<route> </route>
			</leg>
			<act type="work" link="-106281_3" end_time="23:52:57" />
			<leg mode="car">
				<route> </route>
			</leg>
			<act type="home" link="-106281_2"/>
		</plan>
	</person>
	<person id="3_2_3">
		<plan>
			<act type="home" link="-106281_5" end_time="11:52:59" />
			<leg mode="car">
				<route> </route>
			</leg>
			<act type="work" link="-106281_8" end_time="23:52:59" />
			<leg mode="car">
				<route> </route>
			</leg>
			<act type="home" link="-106281_5"/>
		</plan>
	</person>
	<person id="3_2_4">
		<plan>
			<act type="home" link="-106281_10" end_time="11:53:20" />
			<leg mode="car">
				<route> </route>
			</leg>
			<act type="work" link="-106281_16" end_time="23:53:20" />
			<leg mode="car">
				<route> </route>
			</leg>
			<act type="home" link="-106281_10"/>
		</plan>
	</person>
	<person id="3_2_5">
		<plan>
			<act type="home" link="-106281_18" end_time="11:53:44" />
			<leg mode="car">
				<route> </route>
			</leg>
			<act type="work" link="-111005_0" end_time="23:53:44" />
			<leg mode="car">
				<route> </route>
			</leg>
			<act type="home" link="-106281_18"/>
		</plan>
	</person>
	<person id="5_1_0">
		<plan>
			<act type="home" link="-126425_0" end_time="07:00:10" />
			<leg mode="car">
				<route> </route>
			</leg>
			<act type="work" link="-167897_5" end_time="19:00:10" />
			<leg mode="car">
				<route> </route>
			</leg>
			<act type="home" link="-126425_0"/>
		</plan>
	</person>
	<person id="5_2_0">
		<plan>
			<act type="home" link="-167897_5" end_time="11:00:10" />
			<leg mode="car">
				<route> </route>
			</leg>
			<act type="work" link="-126425_0" end_time="23:00:10" />
			<leg mode="car">
				<route> </route>
			</leg>
			<act type="home" link="-167897_5"/>
		</plan>
	</person>
	<person id="7_1_0">
		<plan>
			<act type="home" link="-161787_7_r" end_time="07:00:14" />
			<leg mode="car">
				<route> </route>
			</leg>
			<act type="work" link="-160145_0" end_time="19:00:14" />
			<leg mode="car">
				<route> </route>
			</leg>
			<act type="home" link="-161787_7_r"/>
		</plan>
	</person>
	<person id="7_2_0">
		<plan>
			<act type="home" link="-160145_0" end_time="11:00:14" />
			<leg mode="car">
				<route> </route>
			</leg>
			<act type="work" link="-161787_7_r" end_time="23:00:14" />
			<leg mode="car">
				<route> </route>
			</leg>
			<act type="home" link="-160145_0"/>
		</plan>
	</person>
	<person id="9_1_0">
		<plan>
			<act type="home" link="-139339_0" end_time="07:00:16" />
			<leg mode="car">
				<route> </route>
			</leg>
			<act type="work" link="-169081_5_r" end_time="19:00:16" />
			<leg mode="car">
				<route> </route>
			</leg>
			<act type="home" link="-139339_0"/>
		</plan>
	</person>
	<person id="9_2_0">
		<plan>
			<act type="home" link="-169081_5_r" end_time="11:00:16" />
			<leg mode="car">
				<route> </route>
			</leg>
			<act type="work" link="-139339_0" end_time="23:00:16" />
			<leg mode="car">
				<route> </route>
			</leg>
			<act type="home" link="-169081_5_r"/>
		</plan>
	</person>
	<person id="29_2_0">
		<plan>
			<act type="home" link="-153967_29_r" end_time="11:00:51" />
			<leg mode="car">
				<route> </route>
			</leg>
			<act type="work" link="-166023_0" end_time="23:00:51" />
			<leg mode="car">
				<route> </route>
			</leg>
			<act type="home" link="-153967_29_r"/>
		</plan>
	</person>
	<person id="29_1_0">
		<plan>
			<act type="home" link="-166023_0" end_time="07:00:51" />
			<leg mode="car">
				<route> </route>
			</leg>
			<act type="work" link="-153967_29_r" end_time="19:00:51" />
			<leg mode="car">
				<route> </route>
			</leg>
			<act type="home" link="-166023_0"/>
		</plan>
	</person>
	<person id="27_2_0">
		<plan>
			<act type="home" link="-117471_0" end_time="11:00:47" />
			<leg mode="car">
				<route> </route>
			</leg>
			<act type="work" link="-111583_0" end_time="23:00:47" />
			<leg mode="car">
				<route> </route>
			</leg>
			<act type="home" link="-117471_0"/>
		</plan>
	</person>
	<person id="27_2_1">
		<plan>
			<act type="home" link="-127119_0" end_time="11:01:07" />
			<leg mode="car">
				<route> </route>
			</leg>
			<act type="work" link="-138907_0" end_time="23:01:07" />
			<leg mode="car">
				<route> </route>
			</leg>
			<act type="home" link="-127119_0"/>
		</plan>
	</person>
	<person id="27_2_2">
		<plan>
			<act type="home" link="-110769_1" end_time="11:03:47" />
			<leg mode="car">
				<route> </route>
			</leg>
			<act type="work" link="-122197_8" end_time="23:03:47" />
			<leg mode="car">
				<route> </route>
			</leg>
			<act type="home" link="-110769_1"/>
		</plan>
	</person>
	<person id="27_2_3">
		<plan>
			<act type="home" link="-118583_0" end_time="11:04:14" />
			<leg mode="car">
				<route> </route>
			</leg>
			<act type="work" link="-118583_5" end_time="23:04:14" />
			<leg mode="car">
				<route> </route>
			</leg>
			<act type="home" link="-118583_0"/>
		</plan>
	</person>
	<person id="27_2_4">
		<plan>
			<act type="home" link="-118583_7" end_time="11:04:35" />
			<leg mode="car">
				<route> </route>
			</leg>
			<act type="work" link="-156707_4" end_time="23:04:35" />
			<leg mode="car">
				<route> </route>
			</leg>
			<act type="home" link="-118583_7"/>
		</plan>
	</person>
	<person id="15_2_0">
		<plan>
			<act type="home" link="-135983_0" end_time="11:00:25" />
			<leg mode="car">
				<route> </route>
			</leg>
			<act type="work" link="-137325_0_r" end_time="23:00:25" />
			<leg mode="car">
				<route> </route>
			</leg>
			<act type="home" link="-135983_0"/>
		</plan>
	</person>
	<person id="15_2_1">
		<plan>
			<act type="home" link="-136773_1" end_time="11:15:15" />
			<leg mode="car">
				<route> </route>
			</leg>
			<act type="work" link="-106281_0" end_time="23:15:15" />
			<leg mode="car">
				<route> </route>
			</leg>
			<act type="home" link="-136773_1"/>
		</plan>
	</person>
	<person id="15_2_2">
		<plan>
			<act type="home" link="-106281_2" end_time="11:16:40" />
			<leg mode="car">
				<route> </route>
			</leg>
			<act type="work" link="-106281_3" end_time="23:16:40" />
			<leg mode="car">
				<route> </route>
			</leg>
			<act type="home" link="-106281_2"/>
		</plan>
	</person>
	<person id="15_2_3">
		<plan>
			<act type="home" link="-106281_5" end_time="11:16:42" />
			<leg mode="car">
				<route> </route>
			</leg>
			<act type="work" link="-106281_8" end_time="23:16:42" />
			<leg mode="car">
				<route> </route>
			</leg>
			<act type="home" link="-106281_5"/>
		</plan>
	</person>
	<person id="15_2_4">
		<plan>
			<act type="home" link="-106281_10" end_time="11:17:03" />
			<leg mode="car">
				<route> </route>
			</leg>
			<act type="work" link="-106281_16" end_time="23:17:03" />
			<leg mode="car">
				<route> </route>
			</leg>
			<act type="home" link="-106281_10"/>
		</plan>
	</person>
	<person id="15_2_5">
		<plan>
			<act type="home" link="-106281_18" end_time="11:17:27" />
			<leg mode="car">
				<route> </route>
			</leg>
			<act type="work" link="-124919_0" end_time="23:17:27" />
			<leg mode="car">
				<route> </route>
			</leg>
			<act type="home" link="-106281_18"/>
		</plan>
	</person>
	<person id="15_1_0">
		<plan>
			<act type="home" link="-124919_0" end_time="07:00:25" />
			<leg mode="car">
				<route> </route>
			</leg>
			<act type="work" link="-118585_10" end_time="19:00:25" />
			<leg mode="car">
				<route> </route>
			</leg>
			<act type="home" link="-124919_0"/>
		</plan>
	</person>
	<person id="15_1_1">
		<plan>
			<act type="home" link="-118585_12" end_time="07:29:55" />
			<leg mode="car">
				<route> </route>
			</leg>
			<act type="work" link="-118585_17" end_time="19:29:55" />
			<leg mode="car">
				<route> </route>
			</leg>
			<act type="home" link="-118585_12"/>
		</plan>
	</person>
	<person id="15_1_2">
		<plan>
			<act type="home" link="-118585_19" end_time="07:30:59" />
			<leg mode="car">
				<route> </route>
			</leg>
			<act type="work" link="-118585_19" end_time="19:30:59" />
			<leg mode="car">
				<route> </route>
			</leg>
			<act type="home" link="-118585_19"/>
		</plan>
	</person>
	<person id="15_1_3">
		<plan>
			<act type="home" link="-118585_21" end_time="07:31:07" />
			<leg mode="car">
				<route> </route>
			</leg>
			<act type="work" link="-118591_8" end_time="19:31:07" />
			<leg mode="car">
				<route> </route>
			</leg>
			<act type="home" link="-118585_21"/>
		</plan>
	</person>
	<person id="15_1_4">
		<plan>
			<act type="home" link="-118591_10" end_time="07:34:08" />
			<leg mode="car">
				<route> </route>
			</leg>
			<act type="work" link="-118591_12" end_time="19:34:08" />
			<leg mode="car">
				<route> </route>
			</leg>
			<act type="home" link="-118591_10"/>
		</plan>
	</person>
	<person id="15_1_5">
		<plan>
			<act type="home" link="-118591_14" end_time="07:35:31" />
			<leg mode="car">
				<route> </route>
			</leg>
			<act type="work" link="-135983_0" end_time="19:35:31" />
			<leg mode="car">
				<route> </route>
			</leg>
			<act type="home" link="-118591_14"/>
		</plan>
	</person>
	<person id="13_2_0">
		<plan>
			<act type="home" link="-151671_0" end_time="11:00:21" />
			<leg mode="car">
				<route> </route>
			</leg>
			<act type="work" link="-142825_0_r" end_time="23:00:21" />
			<leg mode="car">
				<route> </route>
			</leg>
			<act type="home" link="-151671_0"/>
		</plan>
	</person>
	<person id="13_1_0">
		<plan>
			<act type="home" link="-142825_0_r" end_time="07:00:21" />
			<leg mode="car">
				<route> </route>
			</leg>
			<act type="work" link="-151671_0" end_time="19:00:21" />
			<leg mode="car">
				<route> </route>
			</leg>
			<act type="home" link="-142825_0_r"/>
		</plan>
	</person>
	<person id="11_2_0">
		<plan>
			<act type="home" link="-117801_8" end_time="11:00:18" />
			<leg mode="car">
				<route> </route>
			</leg>
			<act type="work" link="-111687_12" end_time="23:00:18" />
			<leg mode="car">
				<route> </route>
			</leg>
			<act type="home" link="-117801_8"/>
		</plan>
	</person>
	<person id="11_2_1">
		<plan>
			<act type="home" link="-146225_1" end_time="11:59:35" />
			<leg mode="car">
				<route> </route>
			</leg>
			<act type="work" link="-143941_4" end_time="23:59:35" />
			<leg mode="car">
				<route> </route>
			</leg>
			<act type="home" link="-146225_1"/>
		</plan>
	</person>
	<person id="11_2_2">
		<plan>
			<act type="home" link="-143941_6" end_time="12:01:13" />
			<leg mode="car">
				<route> </route>
			</leg>
			<act type="work" link="-166817_3_r" end_time="00:01:13" />
			<leg mode="car">
				<route> </route>
			</leg>
			<act type="home" link="-143941_6"/>
		</plan>
	</person>
	<person id="11_1_0">
		<plan>
			<act type="home" link="-166817_3_r" end_time="07:00:18" />
			<leg mode="car">
				<route> </route>
			</leg>
			<act type="work" link="-133501_10" end_time="19:00:18" />
			<leg mode="car">
				<route> </route>
			</leg>
			<act type="home" link="-166817_3_r"/>
		</plan>
	</person>
	<person id="11_1_1">
		<plan>
			<act type="home" link="-111689_0" end_time="07:59:08" />
			<leg mode="car">
				<route> </route>
			</leg>
			<act type="work" link="-117801_8" end_time="19:59:08" />
			<leg mode="car">
				<route> </route>
			</leg>
			<act type="home" link="-111689_0"/>
		</plan>
	</person>
	<person id="19_2_0">
		<plan>
			<act type="home" link="-128415_7" end_time="11:00:31" />
			<leg mode="car">
				<route> </route>
			</leg>
			<act type="work" link="-111687_12" end_time="23:00:31" />
			<leg mode="car">
				<route> </route>
			</leg>
			<act type="home" link="-128415_7"/>
		</plan>
	</person>
	<person id="19_2_1">
		<plan>
			<act type="home" link="-146225_1" end_time="11:17:04" />
			<leg mode="car">
				<route> </route>
			</leg>
			<act type="work" link="-143941_4" end_time="23:17:04" />
			<leg mode="car">
				<route> </route>
			</leg>
			<act type="home" link="-146225_1"/>
		</plan>
	</person>
	<person id="19_2_2">
		<plan>
			<act type="home" link="-143941_6" end_time="11:18:42" />
			<leg mode="car">
				<route> </route>
			</leg>
			<act type="work" link="-142249_2" end_time="23:18:42" />
			<leg mode="car">
				<route> </route>
			</leg>
			<act type="home" link="-143941_6"/>
		</plan>
	</person>