<?xml version="1.0" encoding="UTF-8"?><!DOCTYPE plans SYSTEM "http://www.matsim.org/files/dtd/plans_v4.dtd">
<plans>
	<person id="16_1_0">
		<plan>
			<act type="home" link="-301584_0" end_time="07:00:32" />
			<leg mode="car">
				<route> </route>
			</leg>
			<act type="work" link="-300619_0_r" end_time="19:00:32" />
			<leg mode="car">
				<route> </route>
			</leg>
			<act type="home" link="-301584_0"/>
		</plan>
	</person>
	<person id="14_2_0">
		<plan>
			<act type="home" link="-299128_0" end_time="11:00:28" />
			<leg mode="car">
				<route> </route>
			</leg>
			<act type="work" link="-285775_1_r" end_time="23:00:28" />
			<leg mode="car">
				<route> </route>
			</leg>
			<act type="home" link="-299128_0"/>
		</plan>
	</person>
	<person id="14_2_1">
		<plan>
			<act type="home" link="-289682_0" end_time="11:10:40" />
			<leg mode="car">
				<route> </route>
			</leg>
			<act type="work" link="-289682_0" end_time="23:10:40" />
			<leg mode="car">
				<route> </route>
			</leg>
			<act type="home" link="-289682_0"/>
		</plan>
	</person>
	<person id="14_2_2">
		<plan>
			<act type="home" link="-289703_11" end_time="11:10:46" />
			<leg mode="car">
				<route> </route>
			</leg>
			<act type="work" link="-298236_0_r" end_time="23:10:46" />
			<leg mode="car">
				<route> </route>
			</leg>
			<act type="home" link="-289703_11"/>
		</plan>
	</person>
	<person id="14_1_0">
		<plan>
			<act type="home" link="-298236_0_r" end_time="07:00:28" />
			<leg mode="car">
				<route> </route>
			</leg>
			<act type="work" link="-303695_0" end_time="19:00:28" />
			<leg mode="car">
				<route> </route>
			</leg>
			<act type="home" link="-298236_0_r"/>
		</plan>
	</person>
	<person id="14_1_1">
		<plan>
			<act type="home" link="-298267_0" end_time="07:05:40" />
			<leg mode="car">
				<route> </route>
			</leg>
			<act type="work" link="-298267_1" end_time="19:05:40" />
			<leg mode="car">
				<route> </route>
			</leg>
			<act type="home" link="-298267_0"/>
		</plan>
	</person>
	<person id="14_1_2">
		<plan>
			<act type="home" link="-300076_0" end_time="07:06:22" />
			<leg mode="car">
				<route> </route>
			</leg>
			<act type="work" link="-300076_2" end_time="19:06:22" />
			<leg mode="car">
				<route> </route>
			</leg>
			<act type="home" link="-300076_0"/>
		</plan>
	</person>
	<person id="14_1_3">
		<plan>
			<act type="home" link="-290928_1" end_time="07:06:41" />
			<leg mode="car">
				<route> </route>
			</leg>
			<act type="work" link="-290928_2" end_time="19:06:41" />
			<leg mode="car">
				<route> </route>
			</leg>
			<act type="home" link="-290928_1"/>
		</plan>
	</person>
	<person id="14_1_4">
		<plan>
			<act type="home" link="-289684_1" end_time="07:06:28" />
			<leg mode="car">
				<route> </route>
			</leg>
			<act type="work" link="-299128_0" end_time="19:06:28" />
			<leg mode="car">
				<route> </route>
			</leg>
			<act type="home" link="-289684_1"/>
		</plan>
	</person>
	<person id="12_2_0">
		<plan>
			<act type="home" link="-283948_0" end_time="11:00:26" />
			<leg mode="car">
				<route> </route>
			</leg>
			<act type="work" link="-297856_0" end_time="23:00:26" />
			<leg mode="car">
				<route> </route>
			</leg>
			<act type="home" link="-283948_0"/>
		</plan>
	</person>
	<person id="12_2_1">
		<plan>
			<act type="home" link="-283532_1" end_time="11:14:44" />
			<leg mode="car">
				<route> </route>
			</leg>
			<act type="work" link="-289685_2" end_time="23:14:44" />
			<leg mode="car">
				<route> </route>
			</leg>
			<act type="home" link="-283532_1"/>
		</plan>
	</person>
	<person id="12_2_2">
		<plan>
			<act type="home" link="-295554_4" end_time="11:13:11" />
			<leg mode="car">
				<route> </route>
			</leg>
			<act type="work" link="-293054_0" end_time="23:13:11" />
			<leg mode="car">
				<route> </route>
			</leg>
			<act type="home" link="-295554_4"/>
		</plan>
	</person>
	<person id="12_2_3">
		<plan>
			<act type="home" link="-296007_0" end_time="11:10:34" />
			<leg mode="car">
				<route> </route>
			</leg>
			<act type="work" link="-296007_3" end_time="23:10:34" />
			<leg mode="car">
				<route> </route>
			</leg>
			<act type="home" link="-296007_0"/>
		</plan>
	</person>
	<person id="12_2_4">
		<plan>
			<act type="home" link="-283530_1" end_time="11:10:54" />
			<leg mode="car">
				<route> </route>
			</leg>
			<act type="work" link="-291490_0" end_time="23:10:54" />
			<leg mode="car">
				<route> </route>
			</leg>
			<act type="home" link="-283530_1"/>
		</plan>
	</person>
	<person id="12_2_5">
		<plan>
			<act type="home" link="-304722_0" end_time="11:11:39" />
			<leg mode="car">
				<route> </route>
			</leg>
			<act type="work" link="-292067_0" end_time="23:11:39" />
			<leg mode="car">
				<route> </route>
			</leg>
			<act type="home" link="-304722_0"/>
		</plan>
	</person>
	<person id="12_1_0">
		<plan>
			<act type="home" link="-292067_0" end_time="07:00:26" />
			<leg mode="car">
				<route> </route>
			</leg>
			<act type="work" link="-286234_0" end_time="19:00:26" />
			<leg mode="car">
				<route> </route>
			</leg>
			<act type="home" link="-292067_0"/>
		</plan>
	</person>
	<person id="12_1_1">
		<plan>
			<act type="home" link="-301960_0" end_time="07:04:44" />
			<leg mode="car">
				<route> </route>
			</leg>
			<act type="work" link="-289683_4" end_time="19:04:44" />
			<leg mode="car">
				<route> </route>
			</leg>
			<act type="home" link="-301960_0"/>
		</plan>
	</person>
	<person id="12_1_2">
		<plan>
			<act type="home" link="-289683_6" end_time="07:04:50" />
			<leg mode="car">
				<route> </route>
			</leg>
			<act type="work" link="-301961_0" end_time="19:04:50" />
			<leg mode="car">
				<route> </route>
			</leg>
			<act type="home" link="-289683_6"/>
		</plan>
	</person>
	<person id="12_1_3">
		<plan>
			<act type="home" link="-299055_1" end_time="07:05:35" />
			<leg mode="car">
				<route> </route>
			</leg>
			<act type="work" link="-289686_4" end_time="19:05:35" />
			<leg mode="car">
				<route> </route>
			</leg>
			<act type="home" link="-299055_1"/>
		</plan>
	</person>
	<person id="12_1_4">
		<plan>
			<act type="home" link="-289686_6" end_time="07:06:07" />
			<leg mode="car">
				<route> </route>
			</leg>
			<act type="work" link="-283948_0" end_time="19:06:07" />
			<leg mode="car">
				<route> </route>
			</leg>
			<act type="home" link="-289686_6"/>
		</plan>
	</person>
	<person id="10_2_0">
		<plan>
			<act type="home" link="-288919_0" end_time="11:00:22" />
			<leg mode="car">
				<route> </route>
			</leg>
			<act type="work" link="-289686_0_r" end_time="23:00:22" />
			<leg mode="car">
				<route> </route>
			</leg>
			<act type="home" link="-288919_0"/>
		</plan>
	</person>
	<person id="10_2_1">
		<plan>
			<act type="home" link="-304225_2" end_time="11:08:52" />
			<leg mode="car">
				<route> </route>
			</leg>
			<act type="work" link="-300845_0_r" end_time="23:08:52" />
			<leg mode="car">
				<route> </route>
			</leg>
			<act type="home" link="-304225_2"/>
		</plan>
	</person>
	<person id="10_1_0">
		<plan>
			<act type="home" link="-300845_0_r" end_time="07:00:22" />
			<leg mode="car">
				<route> </route>
			</leg>
			<act type="work" link="-302363_0" end_time="19:00:22" />
			<leg mode="car">
				<route> </route>
			</leg>
			<act type="home" link="-300845_0_r"/>
		</plan>
	</person>
	<person id="10_1_1">
		<plan>
			<act type="home" link="-302363_2" end_time="07:07:59" />
			<leg mode="car">
				<route> </route>
			</leg>
			<act type="work" link="-286239_1" end_time="19:07:59" />
			<leg mode="car">
				<route> </route>
			</leg>
			<act type="home" link="-302363_2"/>
		</plan>
	</person>
	<person id="10_1_2">
		<plan>
			<act type="home" link="-283520_0" end_time="07:08:54" />
			<leg mode="car">
				<route> </route>
			</leg>
			<act type="work" link="-289686_4" end_time="19:08:54" />
			<leg mode="car">
				<route> </route>
			</leg>
			<act type="home" link="-283520_0"/>
		</plan>
	</person>
	<person id="10_1_3">
		<plan>
			<act type="home" link="-289686_6" end_time="07:09:21" />
			<leg mode="car">
				<route> </route>
			</leg>
			<act type="work" link="-288919_0" end_time="19:09:21" />
			<leg mode="car">
				<route> </route>
			</leg>
			<act type="home" link="-289686_6"/>
		</plan>
	</person>
	<person id="18_2_0">
		<plan>
			<act type="home" link="-292289_0" end_time="11:00:34" />
			<leg mode="car">
				<route> </route>
			</leg>
			<act type="work" link="-299693_0_r" end_time="23:00:34" />
			<leg mode="car">
				<route> </route>
			</leg>
			<act type="home" link="-292289_0"/>
		</plan>
	</person>
	<person id="18_1_0">
		<plan>
			<act type="home" link="-299693_0_r" end_time="07:00:34" />
			<leg mode="car">
				<route> </route>
			</leg>
			<act type="work" link="-292289_0" end_time="19:00:34" />
			<leg mode="car">
				<route> </route>
			</leg>
			<act type="home" link="-299693_0_r"/>
		</plan>
	</person>
	<person id="16_2_0">
		<plan>
			<act type="home" link="-300619_0_r" end_time="11:00:32" />
			<leg mode="car">
				<route> </route>
			</leg>
			<act type="work" link="-301584_0" end_time="23:00:32" />
			<leg mode="car">
				<route> </route>
			</leg>
			<act type="home" link="-300619_0_r"/>
		</plan>
	</person>
	<person id="27_1_0">
		<plan>
			<act type="home" link="-300438_0_r" end_time="07:00:53" />
			<leg mode="car">
				<route> </route>
			</leg>
			<act type="work" link="-303116_0_r" end_time="19:00:53" />
			<leg mode="car">
				<route> </route>
			</leg>
			<act type="home" link="-300438_0_r"/>
		</plan>
	</person>
	<person id="25_2_0">
		<plan>
			<act type="home" link="-292863_0_r" end_time="11:00:48" />
			<leg mode="car">
				<route> </route>
			</leg>
			<act type="work" link="-286239_1" end_time="23:00:48" />
			<leg mode="car">
				<route> </route>
			</leg>
			<act type="home" link="-292863_0_r"/>
		</plan>
	</person>
	<person id="25_2_1">
		<plan>
			<act type="home" link="-283520_0" end_time="11:03:44" />
			<leg mode="car">
				<route> </route>
			</leg>
			<act type="work" link="-289686_4" end_time="23:03:44" />
			<leg mode="car">
				<route> </route>
			</leg>
			<act type="home" link="-283520_0"/>
		</plan>
	</person>
	<person id="25_2_2">
		<plan>
			<act type="home" link="-289686_6" end_time="11:04:12" />
			<leg mode="car">
				<route> </route>
			</leg>
			<act type="work" link="-289686_6" end_time="23:04:12" />
			<leg mode="car">
				<route> </route>
			</leg>
			<act type="home" link="-289686_6"/>
		</plan>
	</person>
	<person id="25_2_3">
		<plan>
			<act type="home" link="-292194_3" end_time="11:04:20" />
			<leg mode="car">
				<route> </route>
			</leg>
			<act type="work" link="-293153_0" end_time="23:04:20" />
			<leg mode="car">
				<route> </route>
			</leg>
			<act type="home" link="-292194_3"/>
		</plan>
	</person>
	<person id="25_1_0">
		<plan>
			<act type="home" link="-293153_0" end_time="07:00:48" />
			<leg mode="car">
				<route> </route>
			</leg>
			<act type="work" link="-297378_0" end_time="19:00:48" />
			<leg mode="car">
				<route> </route>
			</leg>
			<act type="home" link="-293153_0"/>
		</plan>
	</person>
	<person id="25_1_1">
		<plan>
			<act type="home" link="-283532_1" end_time="07:09:09" />
			<leg mode="car">
				<route> </route>
			</leg>
			<act type="work" link="-285775_1_r" end_time="19:09:09" />
			<leg mode="car">
				<route> </route>
			</leg>
			<act type="home" link="-283532_1"/>
		</plan>
	</person>
	<person id="25_1_2">
		<plan>
			<act type="home" link="-289682_0" end_time="07:10:51" />
			<leg mode="car">
				<route> </route>
			</leg>
			<act type="work" link="-289682_0" end_time="19:10:51" />
			<leg mode="car">
				<route> </route>
			</leg>
			<act type="home" link="-289682_0"/>
		</plan>
	</person>
	<person id="25_1_3">
		<plan>
			<act type="home" link="-289703_11" end_time="07:10:59" />
			<leg mode="car">
				<route> </route>
			</leg>
			<act type="work" link="-292863_0_r" end_time="19:10:59" />
			<leg mode="car">
				<route> </route>
			</leg>
			<act type="home" link="-289703_11"/>
		</plan>
	</person>
	<person id="1_1_0">
		<plan>
			<act type="home" link="-295599_0" end_time="07:00:02" />
			<leg mode="car">
				<route> </route>
			</leg>
			<act type="work" link="-283923_0" end_time="19:00:02" />
			<leg mode="car">
				<route> </route>
			</leg>
			<act type="home" link="-295599_0"/>
		</plan>
	</person>
	<person id="23_2_0">
		<plan>
			<act type="home" link="-303218_0" end_time="11:00:42" />
			<leg mode="car">
				<route> </route>
			</leg>
			<act type="work" link="-286234_0" end_time="23:00:42" />
			<leg mode="car">
				<route> </route>
			</leg>
			<act type="home" link="-303218_0"/>
		</plan>
	</person>
	<person id="23_2_1">
		<plan>
			<act type="home" link="-301960_0" end_time="11:04:10" />
			<leg mode="car">
				<route> </route>
			</leg>
			<act type="work" link="-289683_4" end_time="23:04:10" />
			<leg mode="car">
				<route> </route>
			</leg>
			<act type="home" link="-301960_0"/>
		</plan>
	</person>
	<person id="23_2_2">
		<plan>
			<act type="home" link="-289683_6" end_time="11:04:19" />
			<leg mode="car">
				<route> </route>
			</leg>
			<act type="work" link="-286239_1" end_time="23:04:19" />
			<leg mode="car">
				<route> </route>
			</leg>
			<act type="home" link="-289683_6"/>
		</plan>
	</person>
	<person id="23_2_3">
		<plan>
			<act type="home" link="-294451_0" end_time="11:05:08" />
			<leg mode="car">
				<route> </route>
			</leg>
			<act type="work" link="-294451_0" end_time="23:05:08" />
			<leg mode="car">
				<route> </route>
			</leg>
			<act type="home" link="-294451_0"/>
		</plan>
	</person>
	<person id="23_2_4">
		<plan>
			<act type="home" link="-290928_1" end_time="11:05:25" />
			<leg mode="car">
				<route> </route>
			</leg>
			<act type="work" link="-290928_2" end_time="23:05:25" />
			<leg mode="car">
				<route> </route>
			</leg>
			<act type="home" link="-290928_1"/>
		</plan>
	</person>
	<person id="23_2_5">
		<plan>
			<act type="home" link="-289684_1" end_time="11:05:14" />
			<leg mode="car">
				<route> </route>
			</leg>
			<act type="work" link="-289684_2" end_time="23:05:14" />
			<leg mode="car">
				<route> </route>
			</leg>
			<act type="home" link="-289684_1"/>
		</plan>
	</person>
	<person id="23_1_0">
		<plan>
			<act type="home" link="-289684_2" end_time="07:00:42" />
			<leg mode="car">
				<route> </route>
			</leg>
			<act type="work" link="-289684_2" end_time="19:00:42" />
			<leg mode="car">
				<route> </route>
			</leg>
			<act type="home" link="-289684_2"/>
		</plan>
	</person>
	<person id="23_1_1">
		<plan>
			<act type="home" link="-292194_0" end_time="07:00:47" />
			<leg mode="car">
				<route> </route>
			</leg>
			<act type="work" link="-289686_0_r" end_time="19:00:47" />
			<leg mode="car">
				<route> </route>
			</leg>
			<act type="home" link="-292194_0"/>
		</plan>
	</person>
	<person id="23_1_2">
		<plan>
			<act type="home" link="-304225_2" end_time="07:01:22" />
			<leg mode="car">
				<route> </route>
			</leg>
			<act type="work" link="-303218_0" end_time="19:01:22" />
			<leg mode="car">
				<route> </route>
			</leg>
			<act type="home" link="-304225_2"/>
		</plan>
	</person>
	<person id="1_2_0">
		<plan>
			<act type="home" link="-283923_0" end_time="11:00:02" />
			<leg mode="car">
				<route> </route>
			</leg>
			<act type="work" link="-295599_0" end_time="23:00:02" />
			<leg mode="car">
				<route> </route>
			</leg>
			<act type="home" link="-283923_0"/>
		</plan>
	</person>
	<person id="3_1_0">
		<plan>
			<act type="home" link="-298543_0_r" end_time="07:00:06" />
			<leg mode="car">
				<route> </route>
			</leg>
			<act type="work" link="-299507_0_r" end_time="19:00:06" />
			<leg mode="car">
				<route> </route>
			</leg>
			<act type="home" link="-298543_0_r"/>
		</plan>
	</person>
	<person id="21_2_0">
		<plan>
			<act type="home" link="-304551_0_r" end_time="11:00:39" />
			<leg mode="car">
				<route> </route>
			</leg>
			<act type="work" link="-305040_0" end_time="23:00:39" />
			<leg mode="car">
				<route> </route>
			</leg>
			<act type="home" link="-304551_0_r"/>
		</plan>
	</person>
	<person id="21_1_0">
		<plan>
			<act type="home" link="-305040_0" end_time="07:00:39" />
			<leg mode="car">
				<route> </route>
			</leg>
			<act type="work" link="-304551_0_r" end_time="19:00:39" />
			<leg mode="car">
				<route> </route>
			</leg>
			<act type="home" link="-305040_0"/>
		</plan>
	</person>
	<person id="3_2_0">
		<plan>
			<act type="home" link="-299507_0_r" end_time="11:00:06" />
			<leg mode="car">
				<route> </route>
			</leg>
			<act type="work" link="-289684_2" end_time="23:00:06" />
			<leg mode="car">
				<route> </route>
			</leg>
			<act type="home" link="-299507_0_r"/>
		</plan>
	</person>
	<person id="3_2_1">
		<plan>
			<act type="home" link="-292194_0" end_time="11:00:14" />
			<leg mode="car">
				<route> </route>
			</leg>
			<act type="work" link="-304819_2" end_time="23:00:14" />
			<leg mode="car">
				<route> </route>
			</leg>
			<act type="home" link="-292194_0"/>
		</plan>
	</person>
	<person id="3_2_2">
		<plan>
			<act type="home" link="-289686_6" end_time="11:00:24" />
			<leg mode="car">
				<route> </route>
			</leg>
			<act type="work" link="-298543_0_r" end_time="23:00:24" />
			<leg mode="car">
				<route> </route>
			</leg>
			<act type="home" link="-289686_6"/>
		</plan>
	</person>
	<person id="5_1_0">
		<plan>
			<act type="home" link="-287576_0_r" end_time="07:00:09" />
			<leg mode="car">
				<route> </route>
			</leg>
			<act type="work" link="-301456_0" end_time="19:00:09" />
			<leg mode="car">
				<route> </route>
			</leg>
			<act type="home" link="-287576_0_r"/>
		</plan>
	</person>
	<person id="5_1_1">
		<plan>
			<act type="home" link="-287643_0" end_time="07:05:33" />
			<leg mode="car">
				<route> </route>
			</leg>
			<act type="work" link="-282426_0" end_time="19:05:33" />
			<leg mode="car">
				<route> </route>
			</leg>
			<act type="home" link="-287643_0"/>
		</plan>
	</person>
	<person id="5_2_0">
		<plan>
			<act type="home" link="-294143_0_r" end_time="11:00:19" />
			<leg mode="car">
				<route> </route>
			</leg>
			<act type="work" link="-299620_0_r" end_time="23:00:19" />
			<leg mode="car">
				<route> </route>
			</leg>
			<act type="home" link="-294143_0_r"/>
		</plan>
	</person>
	<person id="5_2_1">
		<plan>
			<act type="home" link="-286227_0" end_time="11:00:19" />
			<leg mode="car">
				<route> </route>
			</leg>
			<act type="work" link="-287576_0_r" end_time="23:00:19" />
			<leg mode="car">
				<route> </route>
			</leg>
			<act type="home" link="-286227_0"/>
		</plan>
	</person>
	<person id="7_1_0">
		<plan>
			<act type="home" link="-295127_0_r" end_time="07:00:13" />
			<leg mode="car">
				<route> </route>
			</leg>
			<act type="work" link="-289105_0_r" end_time="19:00:13" />
			<leg mode="car">
				<route> </route>
			</leg>
			<act type="home" link="-295127_0_r"/>
		</plan>
	</person>
	<person id="7_2_0">
		<plan>
			<act type="home" link="-289105_0_r" end_time="11:00:13" />
			<leg mode="car">
				<route> </route>
			</leg>
			<act type="work" link="-295127_0_r" end_time="23:00:13" />
			<leg mode="car">
				<route> </route>
			</leg>
			<act type="home" link="-289105_0_r"/>
		</plan>
	</person>
	<person id="9_1_0">
		<plan>
			<act type="home" link="-294827_0_r" end_time="07:00:19" />
			<leg mode="car">
				<route> </route>
			</leg>
			<act type="work" link="-303055_0" end_time="19:00:19" />
			<leg mode="car">
				<route> </route>
			</leg>
			<act type="home" link="-294827_0_r"/>
		</plan>
	</person>
	<person id="9_1_1">
		<plan>
			<act type="home" link="-292460_0" end_time="07:09:35" />
			<leg mode="car">
				<route> </route>
			</leg>
			<act type="work" link="-295968_0" end_time="19:09:35" />
			<leg mode="car">
				<route> </route>
			</leg>
			<act type="home" link="-292460_0"/>
		</plan>
	</person>
	<person id="9_2_0">
		<plan>
			<act type="home" link="-295968_0" end_time="11:00:19" />
			<leg mode="car">
				<route> </route>
			</leg>
			<act type="work" link="-294827_0_r" end_time="23:00:19" />
			<leg mode="car">
				<route> </route>
			</leg>
			<act type="home" link="-295968_0"/>
		</plan>
	</person>
	<person id="29_2_0">
		<plan>
			<act type="home" link="-282092_0" end_time="11:00:58" />
			<leg mode="car">
				<route> </route>
			</leg>
			<act type="work" link="-288465_0" end_time="23:00:58" />
			<leg mode="car">
				<route> </route>
			</leg>
			<act type="home" link="-282092_0"/>
		</plan>
	</person>
	<person id="29_1_0">
		<plan>
			<act type="home" link="-288465_0" end_time="07:00:58" />
			<leg mode="car">
				<route> </route>
			</leg>
			<act type="work" link="-282092_0" end_time="19:00:58" />
			<leg mode="car">
				<route> </route>
			</leg>
			<act type="home" link="-288465_0"/>
		</plan>
	</person>
	<person id="27_2_0">
		<plan>
			<act type="home" link="-303116_0_r" end_time="11:00:53" />
			<leg mode="car">
				<route> </route>
			</leg>
			<act type="work" link="-300438_0_r" end_time="23:00:53" />
			<leg mode="car">
				<route> </route>
			</leg>
			<act type="home" link="-303116_0_r"/>
		</plan>
	</person>
	<person id="15_2_0">
		<plan>
			<act type="home" link="-297047_0_r" end_time="11:00:29" />
			<leg mode="car">
				<route> </route>
			</leg>
			<act type="work" link="-289416_0" end_time="23:00:29" />
			<leg mode="car">
				<route> </route>
			</leg>
			<act type="home" link="-297047_0_r"/>
		</plan>
	</person>
	<person id="15_1_0">
		<plan>
			<act type="home" link="-289416_0" end_time="07:00:29" />
			<leg mode="car">
				<route> </route>
			</leg>
			<act type="work" link="-297047_0_r" end_time="19:00:29" />
			<leg mode="car">
				<route> </route>
			</leg>
			<act type="home" link="-289416_0"/>
		</plan>
	</person>
	<person id="13_2_0">
		<plan>
			<act type="home" link="-284849_0_r" end_time="11:00:27" />
			<leg mode="car">
				<route> </route>
			</leg>
			<act type="work" link="-302363_0" end_time="23:00:27" />
			<leg mode="car">
				<route> </route>
			</leg>
			<act type="home" link="-284849_0_r"/>
		</plan>
	</person>
	<person id="13_2_1">
		<plan>
			<act type="home" link="-302363_2" end_time="11:04:12" />
			<leg mode="car">
				<route> </route>
			</leg>
			<act type="work" link="-290935_0" end_time="23:04:12" />
			<leg mode="car">
				<route> </route>
			</leg>
			<act type="home" link="-302363_2"/>
		</plan>
	</person>
	<person id="13_2_2">
		<plan>
			<act type="home" link="-289703_12" end_time="11:04:49" />
			<leg mode="car">
				<route> </route>
			</leg>
			<act type="work" link="-298291_0_r" end_time="23:04:49" />
			<leg mode="car">
				<route> </route>
			</leg>
			<act type="home" link="-289703_12"/>
		</plan>
	</person>
	<person id="13_1_0">
		<plan>
			<act type="home" link="-298291_0_r" end_time="07:00:27" />
			<leg mode="car">
				<route> </route>
			</leg>
			<act type="work" link="-284849_0_r" end_time="19:00:27" />
			<leg mode="car">
				<route> </route>
			</leg>
			<act type="home" link="-298291_0_r"/>
		</plan>
	</person>
	<person id="11_2_0">
		<plan>
			<act type="home" link="-283215_0_r" end_time="11:00:25" />
			<leg mode="car">
				<route> </route>
			</leg>
			<act type="work" link="-297968_0_r" end_time="23:00:25" />
			<leg mode="car">
				<route> </route>
			</leg>
			<act type="home" link="-283215_0_r"/>
		</plan>
	</person>
	<person id="11_1_0">
		<plan>
			<act type="home" link="-297968_0_r" end_time="07:00:25" />
			<leg mode="car">
				<route> </route>
			</leg>
			<act type="work" link="-283215_0_r" end_time="19:00:25" />
			<leg mode="car">
				<route> </route>
			</leg>
			<act type="home" link="-297968_0_r"/>
		</plan>
	</person>
	<person id="19_2_0">
		<plan>
			<act type="home" link="-298270_0_r" end_time="11:00:35" />
			<leg mode="car">
				<route> </route>
			</leg>
			<act type="work" link="-303055_0" end_time="23:00:35" />
			<leg mode="car">
				<route> </route>
			</leg>
			<act type="home" link="-298270_0_r"/>
		</plan>
	</person>
	<person id="19_2_1">
		<plan>
			<act type="home" link="-292460_0" end_time="11:06:04" />
			<leg mode="car">
				<route> </route>
			</leg>
			<act type="work" link="-300808_0" end_time="23:06:04" />
			<leg mode="car">
				<route> </route>
			</leg>
			<act type="home" link="-292460_0"/>
		</plan>
	</person>
	<person id="19_1_0">
		<plan>
			<act type="home" link="-300808_0" end_time="07:00:35" />
			<leg mode="car">
				<route> </route>
			</leg>
			<act type="work" link="-298270_0_r" end_time="19:00:35" />
			<leg mode="car">
				<route> </route>
			</leg>
			<act type="home" link="-300808_0"/>
		</plan>
	</person>
	<person id="17_2_0">
		<plan>
			<act type="home" link="-283525_0" end_time="11:00:33" />
			<leg mode="car">
				<route> </route>
			</leg>
			<act type="work" link="-283111_0" end_time="23:00:33" />
			<leg mode="car">
				<route> </route>
			</leg>
			<act type="home" link="-283525_0"/>
		</plan>
	</person>
	<person id="17_1_0">
		<plan>
			<act type="home" link="-283111_0" end_time="07:00:33" />
			<leg mode="car">
				<route> </route>
			</leg>
			<act type="work" link="-283525_0" end_time="19:00:33" />
			<leg mode="car">
				<route> </route>
			</leg>
			<act type="home" link="-283111_0"/>
		</plan>
	</person>
	<person id="26_2_0">
		<plan>
			<act type="home" link="-290719_0" end_time="11:00:52" />
			<leg mode="car">
				<route> </route>
			</leg>
			<act type="work" link="-300762_0" end_time="23:00:52" />
			<leg mode="car">
				<route> </route>
			</leg>
			<act type="home" link="-290719_0"/>
		</plan>
	</person>
	<person id="26_1_0">
		<plan>
			<act type="home" link="-300762_0" end_time="07:00:52" />
			<leg mode="car">
				<route> </route>
			</leg>
			<act type="work" link="-290719_0" end_time="19:00:52" />
			<leg mode="car">
				<route> </route>
			</leg>
			<act type="home" link="-300762_0"/>
		</plan>
	</person>
	<person id="0_1_0">
		<plan>
			<act type="home" link="-290028_0_r" end_time="07:00:01" />
			<leg mode="car">
				<route> </route>
			</leg>
			<act type="work" link="-296751_0" end_time="19:00:01" />
			<leg mode="car">
				<route> </route>
			</leg>
			<act type="home" link="-290028_0_r"/>
		</plan>
	</person>
	<person id="24_2_0">
		<plan>
			<act type="home" link="-287191_0" end_time="11:00:47" />
			<leg mode="car">
				<route> </route>
			</leg>
			<act type="work" link="-302363_0" end_time="23:00:47" />
			<leg mode="car">
				<route> </route>
			</leg>
			<act type="home" link="-287191_0"/>
		</plan>
	</person>
	<person id="24_2_1">
		<plan>
			<act type="home" link="-302363_2" end_time="11:06:51" />
			<leg mode="car">
				<route> </route>
			</leg>
			<act type="work" link="-303695_0" end_time="23:06:51" />
			<leg mode="car">
				<route> </route>
			</leg>
			<act type="home" link="-302363_2"/>
		</plan>
	</person>
	<person id="24_2_2">
		<plan>
			<act type="home" link="-298267_0" end_time="11:07:05" />
			<leg mode="car">
				<route> </route>
			</leg>
			<act type="work" link="-298267_1" end_time="23:07:05" />
			<leg mode="car">
				<route> </route>
			</leg>
			<act type="home" link="-298267_0"/>
		</plan>
	</person>
	<person id="24_2_3">
		<plan>
			<act type="home" link="-300076_0" end_time="11:07:47" />
			<leg mode="car">
				<route> </route>
			</leg>
			<act type="work" link="-296665_4_r" end_time="23:07:47" />
			<leg mode="car">
				<route> </route>
			</leg>
			<act type="home" link="-300076_0"/>
		</plan>
	</person>
	<person id="24_2_4">
		<plan>
			<act type="home" link="-283520_0" end_time="11:07:50" />
			<leg mode="car">
				<route> </route>
			</leg>
			<act type="work" link="-288016_0" end_time="23:07:50" />
			<leg mode="car">
				<route> </route>
			</leg>
			<act type="home" link="-283520_0"/>
		</plan>
	</person>
	<person id="24_2_5">
		<plan>
			<act type="home" link="-296148_0" end_time="11:08:00" />
			<leg mode="car">
				<route> </route>
			</leg>
			<act type="work" link="-296148_0" end_time="23:08:00" />
			<leg mode="car">
				<route> </route>
			</leg>
			<act type="home" link="-296148_0"/>
		</plan>
	</person>
	<person id="24_2_6">
		<plan>
			<act type="home" link="-285026_0_r" end_time="11:08:14" />
			<leg mode="car">
				<route> </route>
			</leg>
			<act type="work" link="-300165_0_r" end_time="23:08:14" />
			<leg mode="car">
				<route> </route>
			</leg>
			<act type="home" link="-285026_0_r"/>
		</plan>
	</person>
	<person id="24_1_0">
		<plan>
			<act type="home" link="-283590_0_r" end_time="07:00:57" />
			<leg mode="car">
				<route> </route>
			</leg>
			<act type="work" link="-283590_0_r" end_time="19:00:57" />
			<leg mode="car">
				<route> </route>
			</leg>
			<act type="home" link="-283590_0_r"/>
		</plan>
	</person>
	<person id="24_1_1">
		<plan>
			<act type="home" link="-299012_0" end_time="07:00:57" />
			<leg mode="car">
				<route> </route>
			</leg>
			<act type="work" link="-299012_0" end_time="19:00:57" />
			<leg mode="car">
				<route> </route>
			</leg>
			<act type="home" link="-299012_0"/>
		</plan>
	</person>
	<person id="24_1_2">
		<plan>
			<act type="home" link="-285088_0" end_time="07:01:04" />
			<leg mode="car">
				<route> </route>
			</leg>
			<act type="work" link="-288027_0" end_time="19:01:04" />
			<leg mode="car">
				<route> </route>
			</leg>
			<act type="home" link="-285088_0"/>
		</plan>
	</person>
	<person id="24_1_3">
		<plan>
			<act type="home" link="-303388_0" end_time="07:02:56" />
			<leg mode="car">
				<route> </route>
			</leg>
			<act type="work" link="-297687_0" end_time="19:02:56" />
			<leg mode="car">
				<route> </route>
			</leg>
			<act type="home" link="-303388_0"/>
		</plan>
	</person>
	<person id="24_1_4">
		<plan>
			<act type="home" link="-296007_0" end_time="07:02:00" />
			<leg mode="car">
				<route> </route>
			</leg>
			<act type="work" link="-296007_1" end_time="19:02:00" />
			<leg mode="car">
				<route> </route>
			</leg>
			<act type="home" link="-296007_0"/>
		</plan>
	</person>