<?xml version="1.0" encoding="UTF-8"?><!DOCTYPE plans SYSTEM "http://www.matsim.org/files/dtd/plans_v4.dtd">
<plans>
	<person id="0_0_0">
		<plan>
			<act type="home" link="-290028_0_r" end_time="07:00:00" />
			<leg mode="car">
				<route> </route>
			</leg>
			<act type="work" link="-296751_0" end_time="07:00:00" />
			<leg mode="car">
				<route> </route>
			</leg>
			<act type="home" link="-290028_0_r"/>
		</plan>
	</person>
	<person id="0_1_0">
		<plan>
			<act type="home" link="-296751_0" end_time="11:00:00" />
			<leg mode="car">
				<route> </route>
			</leg>
			<act type="work" link="-290028_0_r" end_time="11:00:00" />
			<leg mode="car">
				<route> </route>
			</leg>
			<act type="home" link="-296751_0"/>
		</plan>
	</person>
	<person id="1_0_0">
		<plan>
			<act type="home" link="-295599_0" end_time="07:00:01" />
			<leg mode="car">
				<route> </route>
			</leg>
			<act type="work" link="-283923_0" end_time="07:00:01" />
			<leg mode="car">
				<route> </route>
			</leg>
			<act type="home" link="-295599_0"/>
		</plan>
	</person>
	<person id="1_1_0">
		<plan>
			<act type="home" link="-283923_0" end_time="11:00:01" />
			<leg mode="car">
				<route> </route>
			</leg>
			<act type="work" link="-295599_0" end_time="11:00:01" />
			<leg mode="car">
				<route> </route>
			</leg>
			<act type="home" link="-283923_0"/>
		</plan>
	</person>
	<person id="10_0_0">
		<plan>
			<act type="home" link="-300845_0_r" end_time="07:00:21" />
			<leg mode="car">
				<route> </route>
			</leg>
			<act type="work" link="-288919_0" end_time="07:00:21" />
			<leg mode="car">
				<route> </route>
			</leg>
			<act type="home" link="-300845_0_r"/>
		</plan>
	</person>
	<person id="10_1_0">
		<plan>
			<act type="home" link="-288919_0" end_time="11:00:21" />
			<leg mode="car">
				<route> </route>
			</leg>
			<act type="work" link="-300845_0_r" end_time="11:00:21" />
			<leg mode="car">
				<route> </route>
			</leg>
			<act type="home" link="-288919_0"/>
		</plan>
	</person>
	<person id="11_0_0">
		<plan>
			<act type="home" link="-297968_0_r" end_time="07:00:24" />
			<leg mode="car">
				<route> </route>
			</leg>
			<act type="work" link="-283215_0_r" end_time="07:00:24" />
			<leg mode="car">
				<route> </route>
			</leg>
			<act type="home" link="-297968_0_r"/>
		</plan>
	</person>
	<person id="11_1_0">
		<plan>
			<act type="home" link="-283215_0_r" end_time="11:00:24" />
			<leg mode="car">
				<route> </route>
			</leg>
			<act type="work" link="-297968_0_r" end_time="11:00:24" />
			<leg mode="car">
				<route> </route>
			</leg>
			<act type="home" link="-283215_0_r"/>
		</plan>
	</person>
	<person id="12_0_0">
		<plan>
			<act type="home" link="-292067_0" end_time="07:00:25" />
			<leg mode="car">
				<route> </route>
			</leg>
			<act type="work" link="-283948_0" end_time="07:00:25" />
			<leg mode="car">
				<route> </route>
			</leg>
			<act type="home" link="-292067_0"/>
		</plan>
	</person>
	<person id="12_1_0">
		<plan>
			<act type="home" link="-283948_0" end_time="11:00:25" />
			<leg mode="car">
				<route> </route>
			</leg>
			<act type="work" link="-292067_0" end_time="11:00:25" />
			<leg mode="car">
				<route> </route>
			</leg>
			<act type="home" link="-283948_0"/>
		</plan>
	</person>
	<person id="13_0_0">
		<plan>
			<act type="home" link="-298291_0_r" end_time="07:00:26" />
			<leg mode="car">
				<route> </route>
			</leg>
			<act type="work" link="-284849_0_r" end_time="07:00:26" />
			<leg mode="car">
				<route> </route>
			</leg>
			<act type="home" link="-298291_0_r"/>
		</plan>
	</person>
	<person id="13_1_0">
		<plan>
			<act type="home" link="-284849_0_r" end_time="11:00:26" />
			<leg mode="car">
				<route> </route>
			</leg>
			<act type="work" link="-298291_0_r" end_time="11:00:26" />
			<leg mode="car">
				<route> </route>
			</leg>
			<act type="home" link="-284849_0_r"/>
		</plan>
	</person>
	<person id="14_0_0">
		<plan>
			<act type="home" link="-298236_0_r" end_time="07:00:27" />
			<leg mode="car">
				<route> </route>
			</leg>
			<act type="work" link="-299128_0" end_time="07:00:27" />
			<leg mode="car">
				<route> </route>
			</leg>
			<act type="home" link="-298236_0_r"/>
		</plan>
	</person>
	<person id="14_1_0">
		<plan>
			<act type="home" link="-299128_0" end_time="11:00:27" />
			<leg mode="car">
				<route> </route>
			</leg>
			<act type="work" link="-298236_0_r" end_time="11:00:27" />
			<leg mode="car">
				<route> </route>
			</leg>
			<act type="home" link="-299128_0"/>
		</plan>
	</person>
	<person id="15_0_0">
		<plan>
			<act type="home" link="-289416_0" end_time="07:00:28" />
			<leg mode="car">
				<route> </route>
			</leg>
			<act type="work" link="-297047_0_r" end_time="07:00:28" />
			<leg mode="car">
				<route> </route>
			</leg>
			<act type="home" link="-289416_0"/>
		</plan>
	</person>
	<person id="15_1_0">
		<plan>
			<act type="home" link="-297047_0_r" end_time="11:00:28" />
			<leg mode="car">
				<route> </route>
			</leg>
			<act type="work" link="-289416_0" end_time="11:00:28" />
			<leg mode="car">
				<route> </route>
			</leg>
			<act type="home" link="-297047_0_r"/>
		</plan>
	</person>
	<person id="16_0_0">
		<plan>
			<act type="home" link="-301584_0" end_time="07:00:31" />
			<leg mode="car">
				<route> </route>
			</leg>
			<act type="work" link="-300619_0_r" end_time="07:00:31" />
			<leg mode="car">
				<route> </route>
			</leg>
			<act type="home" link="-301584_0"/>
		</plan>
	</person>
	<person id="16_1_0">
		<plan>
			<act type="home" link="-300619_0_r" end_time="11:00:31" />
			<leg mode="car">
				<route> </route>
			</leg>
			<act type="work" link="-301584_0" end_time="11:00:31" />
			<leg mode="car">
				<route> </route>
			</leg>
			<act type="home" link="-300619_0_r"/>
		</plan>
	</person>
	<person id="17_0_0">
		<plan>
			<act type="home" link="-283111_0" end_time="07:00:32" />
			<leg mode="car">
				<route> </route>
			</leg>
			<act type="work" link="-283525_0" end_time="07:00:32" />
			<leg mode="car">
				<route> </route>
			</leg>
			<act type="home" link="-283111_0"/>
		</plan>
	</person>
	<person id="17_1_0">
		<plan>
			<act type="home" link="-283525_0" end_time="11:00:32" />
			<leg mode="car">
				<route> </route>
			</leg>
			<act type="work" link="-283111_0" end_time="11:00:32" />
			<leg mode="car">
				<route> </route>
			</leg>
			<act type="home" link="-283525_0"/>
		</plan>
	</person>
	<person id="18_0_0">
		<plan>
			<act type="home" link="-299693_0_r" end_time="07:00:33" />
			<leg mode="car">
				<route> </route>
			</leg>
			<act type="work" link="-292289_0" end_time="07:00:33" />
			<leg mode="car">
				<route> </route>
			</leg>
			<act type="home" link="-299693_0_r"/>
		</plan>
	</person>
	<person id="18_1_0">
		<plan>
			<act type="home" link="-292289_0" end_time="11:00:33" />
			<leg mode="car">
				<route> </route>
			</leg>
			<act type="work" link="-299693_0_r" end_time="11:00:33" />
			<leg mode="car">
				<route> </route>
			</leg>
			<act type="home" link="-292289_0"/>
		</plan>
	</person>
	<person id="19_0_0">
		<plan>
			<act type="home" link="-300808_0" end_time="07:00:34" />
			<leg mode="car">
				<route> </route>
			</leg>
			<act type="work" link="-298270_0_r" end_time="07:00:34" />
			<leg mode="car">
				<route> </route>
			</leg>
			<act type="home" link="-300808_0"/>
		</plan>
	</person>
	<person id="19_1_0">
		<plan>
			<act type="home" link="-298270_0_r" end_time="11:00:34" />
			<leg mode="car">
				<route> </route>
			</leg>
			<act type="work" link="-300808_0" end_time="11:00:34" />
			<leg mode="car">
				<route> </route>
			</leg>
			<act type="home" link="-298270_0_r"/>
		</plan>
	</person>
	<person id="2_0_0">
		<plan>
			<act type="home" link="-303127_0" end_time="07:00:04" />
			<leg mode="car">
				<route> </route>
			</leg>
			<act type="work" link="-286143_0_r" end_time="07:00:04" />
			<leg mode="car">
				<route> </route>
			</leg>
			<act type="home" link="-303127_0"/>
		</plan>
	</person>
	<person id="2_1_0">
		<plan>
			<act type="home" link="-286143_0_r" end_time="11:00:04" />
			<leg mode="car">
				<route> </route>
			</leg>
			<act type="work" link="-303127_0" end_time="11:00:04" />
			<leg mode="car">
				<route> </route>
			</leg>
			<act type="home" link="-286143_0_r"/>
		</plan>
	</person>
	<person id="20_0_0">
		<plan>
			<act type="home" link="-299615_0" end_time="07:00:37" />
			<leg mode="car">
				<route> </route>
			</leg>
			<act type="work" link="-299892_0_r" end_time="07:00:37" />
			<leg mode="car">
				<route> </route>
			</leg>
			<act type="home" link="-299615_0"/>
		</plan>
	</person>
	<person id="20_1_0">
		<plan>
			<act type="home" link="-299892_0_r" end_time="11:00:37" />
			<leg mode="car">
				<route> </route>
			</leg>
			<act type="work" link="-299615_0" end_time="11:00:37" />
			<leg mode="car">
				<route> </route>
			</leg>
			<act type="home" link="-299892_0_r"/>
		</plan>
	</person>
	<person id="21_0_0">
		<plan>
			<act type="home" link="-305040_0" end_time="07:00:38" />
			<leg mode="car">
				<route> </route>
			</leg>
			<act type="work" link="-304551_0_r" end_time="07:00:38" />
			<leg mode="car">
				<route> </route>
			</leg>
			<act type="home" link="-305040_0"/>
		</plan>
	</person>
	<person id="21_1_0">
		<plan>
			<act type="home" link="-304551_0_r" end_time="11:00:38" />
			<leg mode="car">
				<route> </route>
			</leg>
			<act type="work" link="-305040_0" end_time="11:00:38" />
			<leg mode="car">
				<route> </route>
			</leg>
			<act type="home" link="-304551_0_r"/>
		</plan>
	</person>
	<person id="22_0_0">
		<plan>
			<act type="home" link="-300886_0" end_time="07:00:40" />
			<leg mode="car">
				<route> </route>
			</leg>
			<act type="work" link="-296116_0_r" end_time="07:00:40" />
			<leg mode="car">
				<route> </route>
			</leg>
			<act type="home" link="-300886_0"/>
		</plan>
	</person>
	<person id="22_1_0">
		<plan>
			<act type="home" link="-296116_0_r" end_time="11:00:40" />
			<leg mode="car">
				<route> </route>
			</leg>
			<act type="work" link="-300886_0" end_time="11:00:40" />
			<leg mode="car">
				<route> </route>
			</leg>
			<act type="home" link="-296116_0_r"/>
		</plan>
	</person>
	<person id="23_0_0">
		<plan>
			<act type="home" link="-289684_2" end_time="07:00:41" />
			<leg mode="car">
				<route> </route>
			</leg>
			<act type="work" link="-303218_0" end_time="07:00:41" />
			<leg mode="car">
				<route> </route>
			</leg>
			<act type="home" link="-289684_2"/>
		</plan>
	</person>
	<person id="23_1_0">
		<plan>
			<act type="home" link="-303218_0" end_time="11:00:41" />
			<leg mode="car">
				<route> </route>
			</leg>
			<act type="work" link="-289684_2" end_time="11:00:41" />
			<leg mode="car">
				<route> </route>
			</leg>
			<act type="home" link="-303218_0"/>
		</plan>
	</person>
	<person id="24_0_0">
		<plan>
			<act type="home" link="-297687_0" end_time="07:02:33" />
			<leg mode="car">
				<route> </route>
			</leg>
			<act type="work" link="-287191_0" end_time="07:02:33" />
			<leg mode="car">
				<route> </route>
			</leg>
			<act type="home" link="-297687_0"/>
		</plan>
	</person>
	<person id="24_1_0">
		<plan>
			<act type="home" link="-287191_0" end_time="11:00:46" />
			<leg mode="car">
				<route> </route>
			</leg>
			<act type="work" link="-283520_4" end_time="11:00:46" />
			<leg mode="car">
				<route> </route>
			</leg>
			<act type="home" link="-287191_0"/>
		</plan>
	</person>
	<person id="25_0_0">
		<plan>
			<act type="home" link="-293153_0" end_time="07:00:47" />
			<leg mode="car">
				<route> </route>
			</leg>
			<act type="work" link="-292863_0_r" end_time="07:00:47" />
			<leg mode="car">
				<route> </route>
			</leg>
			<act type="home" link="-293153_0"/>
		</plan>
	</person>
	<person id="25_1_0">
		<plan>
			<act type="home" link="-292863_0_r" end_time="11:00:47" />
			<leg mode="car">
				<route> </route>
			</leg>
			<act type="work" link="-293153_0" end_time="11:00:47" />
			<leg mode="car">
				<route> </route>
			</leg>
			<act type="home" link="-292863_0_r"/>
		</plan>
	</person>
	<person id="26_0_0">
		<plan>
			<act type="home" link="-300762_0" end_time="07:00:51" />
			<leg mode="car">
				<route> </route>
			</leg>
			<act type="work" link="-290719_0" end_time="07:00:51" />
			<leg mode="car">
				<route> </route>
			</leg>
			<act type="home" link="-300762_0"/>
		</plan>
	</person>
	<person id="26_1_0">
		<plan>
			<act type="home" link="-290719_0" end_time="11:00:51" />
			<leg mode="car">
				<route> </route>
			</leg>
			<act type="work" link="-300762_0" end_time="11:00:51" />
			<leg mode="car">
				<route> </route>
			</leg>
			<act type="home" link="-290719_0"/>
		</plan>
	</person>
	<person id="27_0_0">
		<plan>
			<act type="home" link="-300438_0_r" end_time="07:00:52" />
			<leg mode="car">
				<route> </route>
			</leg>
			<act type="work" link="-303116_0_r" end_time="07:00:52" />
			<leg mode="car">
				<route> </route>
			</leg>
			<act type="home" link="-300438_0_r"/>
		</plan>
	</person>
	<person id="27_1_0">
		<plan>
			<act type="home" link="-303116_0_r" end_time="11:00:52" />
			<leg mode="car">
				<route> </route>
			</leg>
			<act type="work" link="-300438_0_r" end_time="11:00:52" />
			<leg mode="car">
				<route> </route>
			</leg>
			<act type="home" link="-303116_0_r"/>
		</plan>
	</person>
	<person id="28_0_0">
		<plan>
			<act type="home" link="-295860_0_r" end_time="07:00:55" />
			<leg mode="car">
				<route> </route>
			</leg>
			<act type="work" link="-295128_0_r" end_time="07:00:55" />
			<leg mode="car">
				<route> </route>
			</leg>
			<act type="home" link="-295860_0_r"/>
		</plan>
	</person>
	<person id="28_1_0">
		<plan>
			<act type="home" link="-295128_0_r" end_time="11:00:55" />
			<leg mode="car">
				<route> </route>
			</leg>
			<act type="work" link="-295860_0_r" end_time="11:00:55" />
			<leg mode="car">
				<route> </route>
			</leg>
			<act type="home" link="-295128_0_r"/>
		</plan>
	</person>
	<person id="29_0_0">
		<plan>
			<act type="home" link="-288465_0" end_time="07:00:57" />
			<leg mode="car">
				<route> </route>
			</leg>
			<act type="work" link="-282092_0" end_time="07:00:57" />
			<leg mode="car">
				<route> </route>
			</leg>
			<act type="home" link="-288465_0"/>
		</plan>
	</person>
	<person id="29_1_0">
		<plan>
			<act type="home" link="-282092_0" end_time="11:00:57" />
			<leg mode="car">
				<route> </route>
			</leg>
			<act type="work" link="-288465_0" end_time="11:00:57" />
			<leg mode="car">
				<route> </route>
			</leg>
			<act type="home" link="-282092_0"/>
		</plan>
	</person>
	<person id="3_0_0">
		<plan>
			<act type="home" link="-298543_0_r" end_time="07:00:05" />
			<leg mode="car">
				<route> </route>
			</leg>
			<act type="work" link="-299507_0_r" end_time="07:00:05" />
			<leg mode="car">
				<route> </route>
			</leg>
			<act type="home" link="-298543_0_r"/>
		</plan>
	</person>
	<person id="3_1_0">
		<plan>
			<act type="home" link="-299507_0_r" end_time="11:00:05" />
			<leg mode="car">
				<route> </route>
			</leg>
			<act type="work" link="-298543_0_r" end_time="11:00:05" />
			<leg mode="car">
				<route> </route>
			</leg>
			<act type="home" link="-299507_0_r"/>
		</plan>
	</person>
	<person id="4_0_0">
		<plan>
			<act type="home" link="-282404_3_r" end_time="07:00:07" />
			<leg mode="car">
				<route> </route>
			</leg>
			<act type="work" link="-296011_0" end_time="07:00:07" />
			<leg mode="car">
				<route> </route>
			</leg>
			<act type="home" link="-282404_3_r"/>
		</plan>
	</person>
	<person id="4_1_0">
		<plan>
			<act type="home" link="-296011_0" end_time="11:00:07" />
			<leg mode="car">
				<route> </route>
			</leg>
			<act type="work" link="-282404_3_r" end_time="11:00:07" />
			<leg mode="car">
				<route> </route>
			</leg>
			<act type="home" link="-296011_0"/>
		</plan>
	</person>
	<person id="5_0_0">
		<plan>
			<act type="home" link="-287576_0_r" end_time="07:00:08" />
			<leg mode="car">
				<route> </route>
			</leg>
			<act type="work" link="-294143_0" end_time="07:00:08" />
			<leg mode="car">
				<route> </route>
			</leg>
			<act type="home" link="-287576_0_r"/>
		</plan>
	</person>
	<person id="5_1_0">
		<plan>
			<act type="home" link="-294143_0" end_time="11:00:08" />
			<leg mode="car">
				<route> </route>
			</leg>
			<act type="work" link="-287576_0_r" end_time="11:00:08" />
			<leg mode="car">
				<route> </route>
			</leg>
			<act type="home" link="-294143_0"/>
		</plan>
	</person>
	<person id="6_0_0">
		<plan>
			<act type="home" link="-301114_0_r" end_time="07:00:10" />
			<leg mode="car">
				<route> </route>
			</leg>
			<act type="work" link="-285744_0_r" end_time="07:00:10" />
			<leg mode="car">
				<route> </route>
			</leg>
			<act type="home" link="-301114_0_r"/>
		</plan>
	</person>
	<person id="6_1_0">
		<plan>
			<act type="home" link="-285744_0_r" end_time="11:00:10" />
			<leg mode="car">
				<route> </route>
			</leg>
			<act type="work" link="-301114_0_r" end_time="11:00:10" />
			<leg mode="car">
				<route> </route>
			</leg>
			<act type="home" link="-285744_0_r"/>
		</plan>
	</person>
	<person id="7_0_0">
		<plan>
			<act type="home" link="-295127_0_r" end_time="07:00:12" />
			<leg mode="car">
				<route> </route>
			</leg>
			<act type="work" link="-289105_0_r" end_time="07:00:12" />
			<leg mode="car">
				<route> </route>
			</leg>
			<act type="home" link="-295127_0_r"/>
		</plan>
	</person>
	<person id="7_1_0">
		<plan>
			<act type="home" link="-289105_0_r" end_time="11:00:12" />
			<leg mode="car">
				<route> </route>
			</leg>
			<act type="work" link="-295127_0_r" end_time="11:00:12" />
			<leg mode="car">
				<route> </route>
			</leg>
			<act type="home" link="-289105_0_r"/>
		</plan>
	</person>
	<person id="8_0_0">
		<plan>
			<act type="home" link="-287333_0_r" end_time="07:00:14" />
			<leg mode="car">
				<route> </route>
			</leg>
			<act type="work" link="-303134_0_r" end_time="07:00:14" />
			<leg mode="car">
				<route> </route>
			</leg>
			<act type="home" link="-287333_0_r"/>
		</plan>
	</person>
	<person id="8_0_1">
		<plan>
			<act type="home" link="-281922_0_r" end_time="07:01:54" />
			<leg mode="car">
				<route> </route>
			</leg>
			<act type="work" link="-289981_0" end_time="07:01:54" />
			<leg mode="car">
				<route> </route>
			</leg>
			<act type="home" link="-281922_0_r"/>
		</plan>
	</person>
	<person id="8_1_0">
		<plan>
			<act type="home" link="-289981_0" end_time="11:00:14" />
			<leg mode="car">
				<route> </route>
			</leg>
			<act type="work" link="-287333_0_r" end_time="11:00:14" />
			<leg mode="car">
				<route> </route>
			</leg>
			<act type="home" link="-289981_0"/>
		</plan>
	</person>
	<person id="9_0_0">
		<plan>
			<act type="home" link="-294827_0_r" end_time="07:00:18" />
			<leg mode="car">
				<route> </route>
			</leg>
			<act type="work" link="-295968_0" end_time="07:00:18" />
			<leg mode="car">
				<route> </route>
			</leg>
			<act type="home" link="-294827_0_r"/>
		</plan>
	</person>
	<person id="9_1_0">
		<plan>
			<act type="home" link="-295968_0" end_time="11:00:18" />
			<leg mode="car">
				<route> </route>
			</leg>
			<act type="work" link="-294827_0_r" end_time="11:00:18" />
			<leg mode="car">
				<route> </route>
			</leg>
			<act type="home" link="-295968_0"/>
		</plan>
	</person>
</plans>
