<additional>
	<tlLogic id="1089668757" type="actuated" programID="1" offset="0">
			<phase duration="42" state="GGGgrrrrGGGgrrrr"/>
    		<phase duration="3" state="yyyyrrrryyyyrrrr"/>
    		<phase duration="42" state="rrrrGGggrrrrGGGg"/>
    		<phase duration="3" state="rrrryyyyrrrryyyy"/>
    		<param key="detector-gap" value="2.0"/>
    		<param key="file" value="NULL"/>
    		<param key="freq" value="300"/>
    		<param key="max-gap" value="3.0"/>
    		<param key="passing-time" value="2.0"/>
    		<param key="show-detectors" value="false"/>
    		<param key="vTypes" value=""/>
    		<param key="max-gap" value="3.0"/>
    		<param key="detector-gap" value="2.0"/>
    		<param key="passing-time" value="2.0"/>
    		<param key="vTypes" value=""/>
    		<param key="show-detectors" value="false"/>
    		<param key="file" value="NULL"/>
    		<param key="freq" value="300"/>
 	</tlLogic
 		<tlLogic id="1125210193" type="static" programID="1" offset="0">
    		<phase duration="39" state="rrrGGGGGGrr"/>
    		<phase duration="6" state="rrryyyyyyrr"/>
    		<phase duration="34" state="gggrrrrrrGG"/>
    		<phase duration="5" state="gggrrrrrrrr"/>
    		<phase duration="6" state="yyyrrrrrrrr"/>
  	</tlLogic
  	<tlLogic id="1178349141" type="static" programID="1" offset="16">
    		<phase duration="28" state="rrrgGGgrrrgGGgGrGr"/>
    		<phase duration="5" state="rrrgGGgrrrgGGgrrrr"/>
    		<phase duration="3" state="rrryyygrrryyygrrrr"/>
    		<phase duration="6" state="rrrrrrGrrrrrrGrrrr"/>
    		<phase duration="3" state="rrrrrryrrrrrryrrrr"/>
    		<phase duration="28" state="gGgrrrrgGgrrrrrGrG"/>
    		<phase duration="5" state="gGgrrrrgGgrrrrrrrr"/>
    		<phase duration="3" state="yygrrrryygrrrrrrrr"/>
    		<phase duration="6" state="rrGrrrrrrGrrrrrrrr"/>
    		<phase duration="3" state="rryrrrrrryrrrrrrrr"/>
  	</tlLogic
  	<tlLogic id="1487927522" type="actuated" programID="1" offset="0">
    		<phase duration="24" state="GGGGGggggggrrrrrrrrrrrrrrrr"/>
    		<phase duration="6" state="yyyyyyyyyyyrrrrrrrrrrrrrrrr"/>
    		<phase duration="24" state="rrrrrrrrrrrrrrrGGGGGgGggggg"/>
    		<phase duration="6" state="rrrrrrrrrrrrrrryyyyyyyyyyyy"/>
    		<phase duration="24" state="rrrrrrrrrrrGGGGGrrrrrrrrrrr"/>
    		<phase duration="6" state="rrrrrrrrrrryyyyyrrrrrrrrrrr"/>
    		<param key="detector-gap" value="2.0"/>
    		<param key="file" value="NULL"/>
    		<param key="freq" value="300"/>
    		<param key="max-gap" value="3.0"/>
    		<param key="passing-time" value="2.0"/>
    		<param key="show-detectors" value="false"/>
    		<param key="vTypes" value=""/>
    		<param key="max-gap" value="3.0"/>
    		<param key="detector-gap" value="2.0"/>
    		<param key="passing-time" value="2.0"/>
    		<param key="vTypes" value=""/>
    		<param key="show-detectors" value="false"/>
    		<param key="file" value="NULL"/>
    		<param key="freq" value="300"/>
  	</tlLogic
  	<tlLogic id="1487927529" type="actuated" programID="1" offset="60">
    		<phase duration="33" state="GrrrrrrGGGr"/>
    		<phase duration="6" state="yrrrrrryyyr"/>
    		<phase duration="6" state="rGGGrrrrrrG"/>
    		<phase duration="6" state="ryyyrrrrrry"/>
    		<phase duration="33" state="rrrrGGgGGrr"/>
    		<phase duration="6" state="rrrryyyyyrr"/>
    		<param key="detector-gap" value="2.0"/>
    		<param key="file" value="NULL"/>
    		<param key="freq" value="300"/>
    		<param key="max-gap" value="3.0"/>
    		<param key="passing-time" value="2.0"/>
    		<param key="show-detectors" value="false"/>
    		<param key="vTypes" value=""/>
    		<param key="max-gap" value="3.0"/>
    		<param key="detector-gap" value="2.0"/>
    		<param key="passing-time" value="2.0"/>
    		<param key="vTypes" value=""/>
    		<param key="show-detectors" value="false"/>
    		<param key="file" value="NULL"/>
    		<param key="freq" value="300"/>
  	</tlLogic
  	<tlLogic id="1565882716" type="actuated" programID="1" offset="11">
    		<phase duration="34" state="gGgGggrrrrrgGggrrrrrrrGG"/>
    		<phase duration="5" state="gGgGggrrrrrgGggrrrrrrrrr"/>
    		<phase duration="6" state="yyyyyyrrrrryyyyrrrrrrrrr"/>
    		<phase duration="39" state="rrrrrrGggGgrrrrGGggGggrr"/>
    		<phase duration="6" state="rrrrrryyyyyrrrryyyyyyyrr"/>
    		<param key="detector-gap" value="2.0"/>
    		<param key="file" value="NULL"/>
    		<param key="freq" value="300"/>
    		<param key="max-gap" value="3.0"/>
    		<param key="passing-time" value="2.0"/>
    		<param key="show-detectors" value="false"/>
    		<param key="vTypes" value=""/>
    		<param key="max-gap" value="3.0"/>
    		<param key="detector-gap" value="2.0"/>
    		<param key="passing-time" value="2.0"/>
    		<param key="vTypes" value=""/>
    		<param key="show-detectors" value="false"/>
    		<param key="file" value="NULL"/>
    		<param key="freq" value="300"/>
  	</tlLogic
  	<tlLogic id="1692270811" type="actuated" programID="1" offset="30">
    		<phase duration="40" state="GGGGrrrrGGGgr"/>
    		<phase duration="5" state="yyyyrrrryyyyr"/>
    		<phase duration="35" state="rrrrGgggrrrrG"/>
    		<phase duration="5" state="rrrrGgggrrrrr"/>
    		<phase duration="5" state="rrrryyyyrrrrr"/>
    		<param key="max-gap" value="3.0"/>
    		<param key="detector-gap" value="2.0"/>
    		<param key="passing-time" value="2.0"/>
    		<param key="vTypes" value=""/>
    		<param key="show-detectors" value="false"/>
    		<param key="file" value="NULL"/>
    		<param key="freq" value="300"/>
  	</tlLogic
  	<tlLogic id="1801209605" type="actuated" programID="1" offset="0">
    		<phase duration="33" state="rrrrrrgGggGGgrrrrrrGGggGGGgGrr"/>
    		<phase duration="5" state="rrrrrrgGggGGgrrrrrrGGggGGGgrrr"/>
    		<phase duration="3" state="rrrrrryyyyyygrrrrrryyyyyyygrrr"/>
    		<phase duration="6" state="rrrrrrrrrrrrGrrrrrrrrrrrrrGrrr"/>
    		<phase duration="3" state="rrrrrrrrrrrryrrrrrrrrrrrrryrrr"/>
    		<phase duration="32" state="gGggGgrrrrrrrgGggGgrrrrrrrrrGG"/>
    		<phase duration="5" state="gGggGgrrrrrrrgGggGgrrrrrrrrrrr"/>
    		<phase duration="3" state="yyyyyyrrrrrrryyyyyyrrrrrrrrrrr"/>
    		<param key="detector-gap" value="2.0"/>
    		<param key="file" value="NULL"/>
    		<param key="freq" value="300"/>
    		<param key="max-gap" value="3.0"/>
    		<param key="passing-time" value="2.0"/>
    		<param key="show-detectors" value="false"/>
    		<param key="vTypes" value=""/>
    		<param key="max-gap" value="3.0"/>
    		<param key="detector-gap" value="2.0"/>
    		<param key="passing-time" value="2.0"/>
    		<param key="vTypes" value=""/>
    		<param key="show-detectors" value="false"/>
    		<param key="file" value="NULL"/>
    		<param key="freq" value="300"/>
  	</tlLogic
  	<tlLogic id="1826802045" type="actuated" programID="1" offset="22">
    		<phase duration="42" state="GgGGGgGGGggrrrr"/>
    		<phase duration="3" state="yyyyyyyyyyyrrrr"/>
    		<phase duration="37" state="rrrrrrrrrrrGGgG"/>
    		<phase duration="5" state="rrrrrrrrrrrGGgr"/>
    		<phase duration="3" state="rrrrrrrrrrryyyr"/>
    		<param key="detector-gap" value="2.0"/>
    		<param key="file" value="NULL"/>
    		<param key="freq" value="300"/>
    		<param key="max-gap" value="3.0"/>
    		<param key="passing-time" value="2.0"/>
    		<param key="show-detectors" value="false"/>
    		<param key="vTypes" value=""/>
    		<param key="max-gap" value="3.0"/>
    		<param key="detector-gap" value="2.0"/>
    		<param key="passing-time" value="2.0"/>
    		<param key="vTypes" value=""/>
    		<param key="show-detectors" value="false"/>
    		<param key="file" value="NULL"/>
    		<param key="freq" value="300"/>
  	</tlLogic
  	<tlLogic id="1884382810" type="static" programID="1" offset="7">
    		<phase duration="37" state="ggGgGGGGgGrrrrrrrrrGrGr"/>
    		<phase duration="5" state="ggGgGGGGgGrrrrrrrrrrrrr"/>
    		<phase duration="3" state="yyyyyyyyyyrrrrrrrrrrrrr"/>
    		<phase duration="37" state="rrrrrrrrrrGgGGggGggrGrG"/>
    		<phase duration="5" state="rrrrrrrrrrGgGGggGggrrrr"/>
    		<phase duration="3" state="rrrrrrrrrryyyyyyyyyrrrr"/>
  	</tlLogic
  	<tlLogic id="1926509619" type="actuated" programID="1" offset="0">
    		<phase duration="4" state="rrrrrrgGGGgrrrrrrrrrrrrrrrrGGG"/>
    		<phase duration="5" state="rrrrrrgGGGgrrrrrrrrrrrrrrrrrrr"/>
    		<phase duration="5" state="rrrrrrgGGGGrrrrrrrrrrrrrrrrrrr"/>
    		<phase duration="5" state="rrrrrryyyyyrrrrrrrrrrrrrrrrrrr"/>
    		<phase duration="10" state="rrrrrrrrrrrGgGggrrrrrGgGGggGrr"/>
    		<phase duration="5" state="rrrrrrrrrrrGgGggrrrrrGgGGggrrr"/>
    		<phase duration="5" state="rrrrrrrrrrryyyggrrrrryyyyggrrr"/>
    		<phase duration="6" state="rrrrrrrrrrrrrrGGrrrrrrrrrGGrrr"/>
    		<phase duration="5" state="rrrrrrrrrrrrrryyrrrrrrrrryyrrr"/>
    		<phase duration="5" state="rrrrrrrrrrrrrrrrGGGgGrrrrrrrGG"/>
    		<phase duration="10" state="rrrrrrrrrrrrrrrrGGGgGrrrrrrrrr"/>
    		<phase duration="5" state="rrrrrrrrrrrrrrrryyyyyrrrrrrrrr"/>
    		<phase duration="5" state="gGgGGgrrrrGrrrrrrrrrrrrrrrrrGG"/>
    		<phase duration="10" state="gGgGGgrrrrGrrrrrrrrrrrrrrrrrrr"/>
    		<phase duration="5" state="yyyyyyrrrryrrrrrrrrrrrrrrrrrrr"/>
    		<param key="detector-gap" value="2.0"/>
    		<param key="file" value="NULL"/>
    		<param key="freq" value="300"/>
    		<param key="max-gap" value="3.0"/>
    		<param key="passing-time" value="2.0"/>
    		<param key="show-detectors" value="false"/>
    		<param key="vTypes" value=""/>
    		<param key="max-gap" value="3.0"/>
    		<param key="detector-gap" value="2.0"/>
    		<param key="passing-time" value="2.0"/>
    		<param key="vTypes" value=""/>
    		<param key="show-detectors" value="false"/>
    		<param key="file" value="NULL"/>
    		<param key="freq" value="300"/>
  	</tlLogic
  	<tlLogic id="2037272672" type="actuated" programID="1" offset="0">
    		<phase duration="24" state="rrrrGGGgrrrrrGGGggr"/>
    		<phase duration="6" state="rrrryyyyrrrrryyyyyr"/>
    		<phase duration="19" state="rrrrrrrrGGGgGrrrrrG"/>
    		<phase duration="5" state="rrrrrrrrGGGgGrrrrrr"/>
    		<phase duration="6" state="rrrrrrrryyyyyrrrrrr"/>
    		<phase duration="19" state="gGGGGGrrrrrrrrrrrrG"/>
    		<phase duration="5" state="gGGGGGrrrrrrrrrrrrr"/>
    		<phase duration="6" state="yyyyyyrrrrrrrrrrrrr"/>
    		<param key="max-gap" value="3.0"/>
    		<param key="detector-gap" value="2.0"/>
    		<param key="passing-time" value="2.0"/>
    		<param key="vTypes" value=""/>
    		<param key="show-detectors" value="false"/>
    		<param key="file" value="NULL"/>
    		<param key="freq" value="300"/>
  	</tlLogic
  	<tlLogic id="2053744124" type="static" programID="1" offset="25">
    		<phase duration="12" state="rrrrrrrrrrrrrrrrrGgGGGgrGrr"/>
    		<phase duration="5" state="rrrrrrrrrrrrrrrrrGgGGGgrrrr"/>
    		<phase duration="3" state="rrrrrrrrrrrrrrrrryyyyyyrrrr"/>
    		<phase duration="12" state="rrrrrrrgGgGgrrrrrrrrrrrrrGG"/>
    		<phase duration="5" state="rrrrrrrgGgGgrrrrrrrrrrrrrrr"/>
    		<phase duration="3" state="rrrrrrryyyyyrrrrrrrrrrrrrrr"/>
    		<phase duration="17" state="GGGGgGGrrrrrrrrrrrrrrrrrrrr"/>
    		<phase duration="3" state="yyyyyyyrrrrrrrrrrrrrrrrrrrr"/>
    		<phase duration="12" state="rrrrrrrrrrrrgGgGgrrrrrrrrGG"/>
    		<phase duration="5" state="rrrrrrrrrrrrgGgGgrrrrrrrrrr"/>
    		<phase duration="3" state="rrrrrrrrrrrryyyyyrrrrrrrrrr"/>
    		<phase duration="5" state="rrrrrrrrrrrrrrrrrrrrrrrGGGG"/>
    		<phase duration="5" state="rrrrrrrrrrrrrrrrrrrrrrrrrrr"/>
  	</tlLogic
  	<tlLogic id="2053744131" type="static" programID="1" offset="0">
    		<phase duration="82" state="GGGGG"/>
    		<phase duration="3" state="yyyyy"/>
    		<phase duration="5" state="rrrrr"/>
  	</tlLogic
  	<tlLogic id="2062150190" type="actuated" programID="1" offset="79">
    		<phase duration="82" state="GGGGG"/>
    		<phase duration="3" state="yyyyy"/>
    		<phase duration="5" state="rrrrr"/>
    		<param key="detector-gap" value="2.0"/>
    		<param key="file" value="NULL"/>
    		<param key="freq" value="300"/>
    		<param key="max-gap" value="3.0"/>
    		<param key="passing-time" value="2.0"/>
    		<param key="show-detectors" value="false"/>
    		<param key="vTypes" value=""/>
    		<param key="max-gap" value="3.0"/>
    		<param key="detector-gap" value="2.0"/>
    		<param key="passing-time" value="2.0"/>
    		<param key="vTypes" value=""/>
    		<param key="show-detectors" value="false"/>
    		<param key="file" value="NULL"/>
    		<param key="freq" value="300"/>
  	</tlLogic
  	<tlLogic id="2476726095" type="actuated" programID="1" offset="19">
    		<phase duration="42" state="rrrGGggGGGgGGgr"/>
    		<phase duration="3" state="rrryyyyyyyyyyyr"/>
    		<phase duration="37" state="ggGGrrGrrrrrrrG"/>
    		<phase duration="5" state="ggGGrrGrrrrrrrr"/>
    		<phase duration="3" state="yyyyrryrrrrrrrr"/>
    		<param key="detector-gap" value="2.0"/>
    		<param key="file" value="NULL"/>
    		<param key="freq" value="300"/>
    		<param key="max-gap" value="3.0"/>
    		<param key="passing-time" value="2.0"/>
    		<param key="show-detectors" value="false"/>
    		<param key="vTypes" value=""/>
    		<param key="max-gap" value="3.0"/>
    		<param key="detector-gap" value="2.0"/>
    		<param key="passing-time" value="2.0"/>
    		<param key="vTypes" value=""/>
    		<param key="show-detectors" value="false"/>
    		<param key="file" value="NULL"/>
    		<param key="freq" value="300"/>
  	</tlLogic
  	<tlLogic id="2481938316" type="static" programID="1" offset="0">
    		<phase duration="22" state="gGGGGgrrrrrrGrG"/>
    		<phase duration="5" state="gGGGGgrrrrrrrrr"/>
    		<phase duration="3" state="yyyyyyrrrrrrrrr"/>
    		<phase duration="22" state="rrrrrrrrgGGGrGr"/>
    		<phase duration="5" state="rrrrrrrrgGGrrrr"/>
    		<phase duration="3" state="rrrrrrrryyyrrrr"/>
    		<phase duration="22" state="rrrrrrGgrrrGrGr"/>
    		<phase duration="5" state="rrrrrrGgrrrrrrr"/>
    		<phase duration="3" state="rrrrrryyrrrrrrr"/>
  	</tlLogic
  	<tlLogic id="2511119226" type="static" programID="1" offset="0">
    		<phase duration="72" state="GgGGggGggGgrGr"/>
    		<phase duration="5" state="GgGGggGggGgrrr"/>
    		<phase duration="3" state="yyyyyyyyyyyrrr"/>
    		<phase duration="5" state="rrrrrrrrrrrGGG"/>
    		<phase duration="5" state="rrrrrrrrrrrrrr"/>
  	</tlLogic
  	<tlLogic id="2524926759" type="static" programID="1" offset="0">
    		<phase duration="17" state="rrrrrrrrrrrrrrgGGrG"/>
    		<phase duration="5" state="rrrrrrrrrrrrrrgGGrr"/>
    		<phase duration="4" state="rrrrrrrrrrrrrryyyrr"/>
    		<phase duration="23" state="GgGGGrrrggggggrrrrr"/>
    		<phase duration="4" state="yyyyyrrrggygggrrrrr"/>
    		<phase duration="6" state="rrrrrrrrGGgGGGrrrrr"/>
    		<phase duration="4" state="rrrrrrrryyyyyyrrrrr"/>
    		<phase duration="18" state="rrrrrggGrrrrrrrrrGG"/>
    		<phase duration="5" state="rrrrrggGrrrrrrrrrrr"/>
    		<phase duration="4" state="rrrrryyyrrrrrrrrrrr"/>
  	</tlLogic
  	<tlLogic id="2706253346" type="static" programID="1" offset="0">
    		<phase duration="37" state="gGgrrrrgGgrrrrrGrG"/>
    		<phase duration="5" state="gGgrrrrgGgrrrrrrrr"/>
    		<phase duration="3" state="yyyrrrryyyrrrrrrrr"/>
    		<phase duration="37" state="rrrgGggrrrgGggGrGr"/>
    		<phase duration="5" state="rrrgGggrrrgGggrrrr"/>
    		<phase duration="3" state="rrryyyyrrryyyyrrrr"/>
  	</tlLogic
  	<tlLogic id="2706300474" type="actuated" programID="1" offset="76">
    		<phase duration="37" state="rrrrrrGGggGGgrrrrrrGGggGGgGrGr"/>
    		<phase duration="5" state="rrrrrrGGggGGgrrrrrrGGggGGgrrrr"/>
    		<phase duration="3" state="rrrrrryyyyyyyrrrrrryyyyyyyrrrr"/>
    		<phase duration="37" state="GGggGgrrrrrrrGGggGgrrrrrrrrGrG"/>
    		<phase duration="5" state="GGggGgrrrrrrrGGggGgrrrrrrrrrrr"/>
    		<phase duration="3" state="yyyyyyrrrrrrryyyyyyrrrrrrrrrrr"/>
    		<param key="detector-gap" value="2.0"/>
    		<param key="file" value="NULL"/>
    		<param key="freq" value="300"/>
    		<param key="max-gap" value="3.0"/>
    		<param key="passing-time" value="2.0"/>
    		<param key="show-detectors" value="false"/>
    		<param key="vTypes" value=""/>
    		<param key="max-gap" value="3.0"/>
    		<param key="detector-gap" value="2.0"/>
    		<param key="passing-time" value="2.0"/>
    		<param key="vTypes" value=""/>
    		<param key="show-detectors" value="false"/>
    		<param key="file" value="NULL"/>
    		<param key="freq" value="300"/>
  	</tlLogic
  	<tlLogic id="2906119379" type="actuated" programID="1" offset="50">
    		<phase duration="16" state="GggGgggrrrrrrrrrrrrrGGGgggrrrrrrrrrrrr"/>
    		<phase duration="6" state="yyyygggrrrrrrrrrrrrryyygggrrrrrrrrrrrr"/>
    		<phase duration="6" state="rrrrGGGrrrrrrrrrrrrrrrrGGGrrrrrrrrrrrr"/>
    		<phase duration="6" state="rrrryyyrrrrrrrrrrrrrrrryyyrrrrrrrrrrrr"/>
    		<phase duration="16" state="rrrrrrrrrrrrrrrrrrrrrrrrrrGGGGGgGggggg"/>
    		<phase duration="6" state="rrrrrrrrrrrrrrrrrrrrrrrrrryyyyyyyyyyyy"/>
    		<phase duration="16" state="rrrrrrrGGGGGggggrrrrrrrrrrrrrrrrrrrrrr"/>
    		<phase duration="6" state="rrrrrrryyyyygyyyrrrrrrrrrrrrrrrrrrrrrr"/>
    		<phase duration="6" state="rrrrrrrrrrrrGrrrGGGGrrrrrrrrrrrrrrrrrr"/>
    		<phase duration="6" state="rrrrrrrrrrrryrrryyyyrrrrrrrrrrrrrrrrrr"/>
    		<param key="detector-gap" value="2.0"/>
    		<param key="file" value="NULL"/>
    		<param key="freq" value="300"/>
    		<param key="max-gap" value="3.0"/>
    		<param key="passing-time" value="2.0"/>
    		<param key="show-detectors" value="false"/>
    		<param key="vTypes" value=""/>
    		<param key="max-gap" value="3.0"/>
    		<param key="detector-gap" value="2.0"/>
    		<param key="passing-time" value="2.0"/>
    		<param key="vTypes" value=""/>
    		<param key="show-detectors" value="false"/>
    		<param key="file" value="NULL"/>
    		<param key="freq" value="300"/>
  	</tlLogic
  	<tlLogic id="2906119381" type="actuated" programID="1" offset="25">
    		<phase duration="38" state="GGGggrrrrGGGgr"/>
    		<phase duration="3" state="yyyyyrrrryyyyr"/>
    		<phase duration="32" state="rrrrrGgGgGrrrG"/>
    		<phase duration="5" state="rrrrrGgGgGrrrr"/>
    		<phase duration="3" state="rrrrryyygyrrrr"/>
    		<phase duration="6" state="rrrrrrrrGrrrrr"/>
    		<phase duration="3" state="rrrrrrrryrrrrr"/>
    		<param key="detector-gap" value="2.0"/>
    		<param key="file" value="NULL"/>
    		<param key="freq" value="300"/>
    		<param key="max-gap" value="3.0"/>
    		<param key="passing-time" value="2.0"/>
    		<param key="show-detectors" value="false"/>
    		<param key="vTypes" value=""/>
    		<param key="max-gap" value="3.0"/>
    		<param key="detector-gap" value="2.0"/>
    		<param key="passing-time" value="2.0"/>
    		<param key="vTypes" value=""/>
    		<param key="show-detectors" value="false"/>
    		<param key="file" value="NULL"/>
    		<param key="freq" value="300"/>
  	</tlLogic
  	<tlLogic id="30003684" type="static" programID="1" offset="0">
    		<phase duration="33" state="GgGGggrrGgGGrrrrrG"/>
    		<phase duration="5" state="GgGGggrrGgGGrrrrrr"/>
    		<phase duration="3" state="yyyyyyrryyyyrrrrrr"/>
    		<phase duration="32" state="rrrrrrggrrrrGGggGr"/>
    		<phase duration="5" state="rrrrrrggrrrrGGggrr"/>
    		<phase duration="3" state="rrrrrrygrrrryyggrr"/>
    		<phase duration="6" state="rrrrrrrGrrrrrrGGrr"/>
    		<phase duration="3" state="rrrrrrryrrrrrryyrr"/>
  	</tlLogic
  	<tlLogic id="30003796" type="actuated" programID="1" offset="103">
    		<phase duration="22" state="gGGrrrrrgGGGrrrrrrGrG"/>
    		<phase duration="5" state="gGGrrrrrgGGGrrrrrrrrr"/>
    		<phase duration="6" state="yyyrrrrryyyyrrrrrrrrr"/>
    		<phase duration="6" state="rrrGrrrrrrrrGrrrrrrrr"/>
    		<phase duration="6" state="rrryrrrrrrrryrrrrrrrr"/>
    		<phase duration="22" state="rrrrgGGrrrrrrgGGgGrGr"/>
    		<phase duration="5" state="rrrrgGGrrrrrrgGGgrrrr"/>
    		<phase duration="6" state="rrrryyyrrrrrryyygrrrr"/>
    		<phase duration="6" state="rrrrrrrGrrrrrrrrGrrrr"/>
    		<phase duration="6" state="rrrrrrryrrrrrrrryrrrr"/>
    		<param key="max-gap" value="3.0"/>
    		<param key="detector-gap" value="2.0"/>
    		<param key="passing-time" value="2.0"/>
    		<param key="vTypes" value=""/>
    		<param key="show-detectors" value="false"/>
    		<param key="file" value="NULL"/>
    		<param key="freq" value="300"/>
  	</tlLogic
  	<tlLogic id="30079057" type="actuated" programID="1" offset="101">
    		<phase duration="20" state="rrrrGGGGrrrrrrrrrr"/>
    		<phase duration="5" state="rrrryyyyrrrrrrrrrr"/>
    		<phase duration="22" state="rrrrrrrrGGgggGGGGg"/>
    		<phase duration="5" state="rrrrrrrryygggyyyyy"/>
    		<phase duration="6" state="rrrrrrrrGGGGGrrrrr"/>
    		<phase duration="5" state="rrrrrrrryyyyyrrrrr"/>
    		<phase duration="22" state="GGGGrrrrrrrrrrrrrr"/>
    		<phase duration="5" state="yyyyrrrrrrrrrrrrrr"/>
    		<param key="detector-gap" value="2.0"/>
    		<param key="file" value="NULL"/>
    		<param key="freq" value="300"/>
    		<param key="max-gap" value="3.0"/>
    		<param key="passing-time" value="2.0"/>
    		<param key="show-detectors" value="false"/>
    		<param key="vTypes" value=""/>
    		<param key="max-gap" value="3.0"/>
    		<param key="detector-gap" value="2.0"/>
    		<param key="passing-time" value="2.0"/>
    		<param key="vTypes" value=""/>
    		<param key="show-detectors" value="false"/>
    		<param key="file" value="NULL"/>
    		<param key="freq" value="300"/>
  	</tlLogic
  	<tlLogic id="30279697" type="actuated" programID="1" offset="71">
    		<phase duration="20" state="rrrrrrrgggGGrrrrrrrrrrGrGrG"/>
    		<phase duration="5" state="rrrrrrrgggGGrrrrrrrrrrrrrrr"/>
    		<phase duration="5" state="rrrrrrryyyyyrrrrrrrrrrrrrrr"/>
    		<phase duration="20" state="rrrrrrrrrrrrGgGGgGgGggGGrGr"/>
    		<phase duration="5" state="rrrrrrrrrrrrGgGGgGgGggrrrrr"/>
    		<phase duration="5" state="rrrrrrrrrrrryyyyyyyyyyrrrrr"/>
    		<phase duration="20" state="ggGgGGGrrrrrrrrrrrrrrrrGGrG"/>
    		<phase duration="5" state="ggGgGGGrrrrrrrrrrrrrrrrrrrr"/>
    		<phase duration="5" state="yyyyyyyrrrrrrrrrrrrrrrrrrrr"/>
    		<param key="detector-gap" value="2.0"/>
    		<param key="file" value="NULL"/>
    		<param key="freq" value="300"/>
    		<param key="max-gap" value="3.0"/>
    		<param key="passing-time" value="2.0"/>
    		<param key="show-detectors" value="false"/>
    		<param key="vTypes" value=""/>
    		<param key="max-gap" value="3.0"/>
    		<param key="detector-gap" value="2.0"/>
    		<param key="passing-time" value="2.0"/>
    		<param key="vTypes" value=""/>
    		<param key="show-detectors" value="false"/>
    		<param key="file" value="NULL"/>
    		<param key="freq" value="300"/>
  	</tlLogic
  	<tlLogic id="30343857" type="static" programID="1" offset="0">
    		<phase duration="32" state="rrrrrrrrgGGrGr"/>
    		<phase duration="5" state="rrrrrrrrgGGrrr"/>
    		<phase duration="3" state="rrrrrrrryyyrrr"/>
    		<phase duration="37" state="GGGgGGggrrrrrr"/>
    		<phase duration="3" state="yyyyyyyyrrrrrr"/>
    		<phase duration="5" state="rrrrrrrrrrrGGG"/>
    		<phase duration="5" state="rrrrrrrrrrrrrr"/>
  	</tlLogic
  	<tlLogic id="30345009" type="static" programID="1" offset="0">
    		<phase duration="37" state="GggGGgggGggGGrrrrrrGrG"/>
    		<phase duration="5" state="GggGGgggGggGGrrrrrrrrr"/>
    		<phase duration="3" state="yyyyyyyyyyyyyrrrrrrrrr"/>
    		<phase duration="37" state="rrrrrrrrrrrrrgGgGgGrGr"/>
    		<phase duration="5" state="rrrrrrrrrrrrrgGgGgrrrr"/>
    		<phase duration="3" state="rrrrrrrrrrrrryyyyyrrrr"/>
  	</tlLogic
  	<tlLogic id="30345012" type="static" programID="1" offset="0">
    		<phase duration="22" state="GGGgrrrrrgGGgrrrrGGr"/>
    		<phase duration="5" state="GGGgrrrrrgGGgrrrrrrr"/>
    		<phase duration="3" state="yyyyrrrrryyyyrrrrrrr"/>
    		<phase duration="22" state="rrrrrrrrrrrrrgGGGrGG"/>
    		<phase duration="5" state="rrrrrrrrrrrrrgGGGrrr"/>
    		<phase duration="3" state="rrrrrrrrrrrrryyyyrrr"/>
    		<phase duration="22" state="rrrrgGGGgrrrrrrrrGrG"/>
    		<phase duration="5" state="rrrrgGGGgrrrrrrrrrrr"/>
    		<phase duration="3" state="rrrryyyyyrrrrrrrrrrr"/>
  	</tlLogic
  	<tlLogic id="30345078" type="actuated" programID="1" offset="20">
    		<phase duration="37" state="GgGGGgGgrrrrrrGrG"/>
    		<phase duration="5" state="GgGGGgGgrrrrrrrrr"/>
    		<phase duration="3" state="yyyyyyyyrrrrrrrrr"/>
    		<phase duration="37" state="rrrrrrrrgGGggGrGr"/>
    		<phase duration="5" state="rrrrrrrrgGGggrrrr"/>
    		<phase duration="3" state="rrrrrrrryyyyyrrrr"/>
    		<param key="detector-gap" value="2.0"/>
    		<param key="file" value="NULL"/>
    		<param key="freq" value="300"/>
    		<param key="max-gap" value="3.0"/>
    		<param key="passing-time" value="2.0"/>
    		<param key="show-detectors" value="false"/>
    		<param key="vTypes" value=""/>
    		<param key="max-gap" value="3.0"/>
    		<param key="detector-gap" value="2.0"/>
    		<param key="passing-time" value="2.0"/>
    		<param key="vTypes" value=""/>
    		<param key="show-detectors" value="false"/>
    		<param key="file" value="NULL"/>
    		<param key="freq" value="300"/>
  	</tlLogic
  	<tlLogic id="30345319" type="static" programID="1" offset="72">
    		<phase duration="28" state="rrrrrGGgrrrrrrgGgGgggrrG"/>
    		<phase duration="5" state="rrrrrGGgrrrrrrgGgGgggrrr"/>
    		<phase duration="3" state="rrrrryygrrrrrryyyyggyrrr"/>
    		<phase duration="6" state="rrrrrrrGrrrrrrrrrrGGrrrr"/>
    		<phase duration="3" state="rrrrrrryrrrrrrrrrryyrrrr"/>
    		<phase duration="27" state="GggGgrrrgGggGgrrrrrrrrGr"/>
    		<phase duration="5" state="GggGgrrrgGggGgrrrrrrrrrr"/>
    		<phase duration="3" state="yyyyyrrryyyyyyrrrrrrrrrr"/>
    		<phase duration="5" state="rrrrrrrrrrrrrrrrrrrrrGGG"/>
    		<phase duration="5" state="rrrrrrrrrrrrrrrrrrrrrrrr"/>
  	</tlLogic
  	<tlLogic id="30345462" type="actuated" programID="1" offset="0">
    		<phase duration="30" state="GGGGrrrrrrrrrG"/>
    		<phase duration="5" state="GGGGrrrrrrrrrr"/>
    		<phase duration="5" state="yyyyrrrrrrrrrr"/>
    		<phase duration="30" state="rrrrgGGGgGGrGr"/>
    		<phase duration="5" state="rrrrgGGGgGGrrr"/>
    		<phase duration="5" state="rrrryyyyyyyrrr"/>
    		<phase duration="5" state="rrrrrrrrrrrGGG"/>
    		<phase duration="5" state="rrrrrrrrrrrrrr"/>
    		<param key="detector-gap" value="2.0"/>
    		<param key="file" value="NULL"/>
    		<param key="freq" value="300"/>
    		<param key="max-gap" value="3.0"/>
    		<param key="passing-time" value="2.0"/>
    		<param key="show-detectors" value="false"/>
    		<param key="vTypes" value=""/>
    		<param key="max-gap" value="3.0"/>
    		<param key="detector-gap" value="2.0"/>
    		<param key="passing-time" value="2.0"/>
    		<param key="vTypes" value=""/>
    		<param key="show-detectors" value="false"/>
    		<param key="file" value="NULL"/>
    		<param key="freq" value="300"/>
  	</tlLogic
  	<tlLogic id="3153558838" type="actuated" programID="1" offset="56">
    		<phase duration="24" state="rrrrrrrrGGGGGGGggrrr"/>
    		<phase duration="3" state="rrrrrrrryyyyyyyggrrr"/>
    		<phase duration="6" state="rrrrrrrrrrrrrGGGGrrr"/>
    		<phase duration="3" state="rrrrrrrrrrrrryyyyrrr"/>
    		<phase duration="19" state="rrrrgGGGrrrrrrrrrGrr"/>
    		<phase duration="5" state="rrrrgGGGrrrrrrrrrrrr"/>
    		<phase duration="3" state="rrrryyyyrrrrrrrrrrrr"/>
    		<phase duration="19" state="gGGgrrrrrrrrrrrrrrGG"/>
    		<phase duration="5" state="gGGgrrrrrrrrrrrrrrrr"/>
    		<phase duration="3" state="yyyyrrrrrrrrrrrrrrrr"/>
    		<param key="max-gap" value="3.0"/>
    		<param key="detector-gap" value="2.0"/>
    		<param key="passing-time" value="2.0"/>
    		<param key="vTypes" value=""/>
    		<param key="show-detectors" value="false"/>
    		<param key="file" value="NULL"/>
    		<param key="freq" value="300"/>
  	</tlLogic
  	<tlLogic id="3618304999" type="actuated" programID="1" offset="80">
    		<phase duration="37" state="ggGgGGgGrrrrrrrrrrGrG"/>
    		<phase duration="5" state="ggGgGGgGrrrrrrrrrrrrr"/>
    		<phase duration="3" state="yyyyyyyyrrrrrrrrrrrrr"/>
    		<phase duration="37" state="rrrrrrrrGgGGGgGggGrGr"/>
    		<phase duration="5" state="rrrrrrrrGgGGGgGggrrrr"/>
    		<phase duration="3" state="rrrrrrrryyyyyyyyyrrrr"/>
    		<param key="detector-gap" value="2.0"/>
    		<param key="file" value="NULL"/>
    		<param key="freq" value="300"/>
    		<param key="max-gap" value="3.0"/>
    		<param key="passing-time" value="2.0"/>
    		<param key="show-detectors" value="false"/>
    		<param key="vTypes" value=""/>
    		<param key="max-gap" value="3.0"/>
    		<param key="detector-gap" value="2.0"/>
    		<param key="passing-time" value="2.0"/>
    		<param key="vTypes" value=""/>
    		<param key="show-detectors" value="false"/>
    		<param key="file" value="NULL"/>
    		<param key="freq" value="300"/>
  	</tlLogic
  	<tlLogic id="3624081878" type="actuated" programID="1" offset="20">
    		<phase duration="34" state="rrrgGGGGgGrr"/>
    		<phase duration="5" state="rrrgGGGGgrrr"/>
    		<phase duration="6" state="rrryyyyyyrrr"/>
    		<phase duration="34" state="gggrrrrrrrGG"/>
    		<phase duration="5" state="gggrrrrrrrrr"/>
    		<phase duration="6" state="yyyrrrrrrrrr"/>
    		<param key="max-gap" value="3.0"/>
    		<param key="detector-gap" value="2.0"/>
    		<param key="passing-time" value="2.0"/>
    		<param key="vTypes" value=""/>
    		<param key="show-detectors" value="false"/>
    		<param key="file" value="NULL"/>
    		<param key="freq" value="300"/>
  	</tlLogic
  	<tlLogic id="3668981707" type="static" programID="1" offset="0">
    		<phase duration="20" state="GGgrrrGGGgrrrrrG"/>
    		<phase duration="5" state="GGgrrrGGGgrrrrrr"/>
    		<phase duration="5" state="yyyrrryyyyrrrrrr"/>