<?xml version="1.0" encoding="UTF-8"?>
<!-- generated on 2021-07-26 13:35:01.438006 by 3.matsim_toSUMO_rou.py v1_5_0+0000-3a3be608d2
  options: 
-->
<routes xmlns:xsi="http://www.w3.org/2001/XMLSchema-instance" xsi:noNamespaceSchemaLocation="http://sumo.dlr.de/xsd/routes_file.xsd">
   <trip id="3_1_0" depart="26659.0" from="38008151" to="4848517"/>
   <trip id="3_1_1" depart="26682.0" from="402084477" to="402084477"/>
   <trip id="3_1_2" depart="26696.0" from="15257850" to="15257850"/>
   <trip id="3_1_3" depart="26729.0" from="158124201" to="428230629"/>
   <trip id="6_1_0" depart="26736.0" from="306258895#0" to="306258895#0"/>
   <trip id="3_1_4" depart="26797.0" from="56178980" to="56178980"/>
   <trip id="6_1_1" depart="26841.0" from="4729558" to="4729558"/>
   <trip id="3_1_5" depart="26875.0" from="124272636" to="124272636"/>
   <trip id="3_1_6" depart="26899.0" from="171121264" to="486260018"/>
   <trip id="3_1_7" depart="26921.0" from="124045505" to="124045505"/>
   <trip id="3_1_8" depart="26944.0" from="486260017#0" to="486260017#0"/>
   <trip id="22_1_0" depart="26945.0" from="22760381#0" to="22760381#0"/>
   <trip id="22_1_1" depart="26978.0" from="-445120466" to="445120466"/>
   <trip id="15_1_0" depart="26986.0" from="4712852" to="4712852"/>
   <trip id="3_1_9" depart="27003.0" from="5130429" to="5130429"/>
   <trip id="22_1_2" depart="27043.0" from="365378964#2" to="365378964#2"/>
   <trip id="15_1_1" depart="27044.0" from="15257849" to="15257849"/>
   <trip id="15_1_2" depart="27060.0" from="428230613" to="428230613"/>
   <trip id="22_1_3" depart="27074.0" from="359656862#1" to="377324471#2"/>
   <trip id="15_1_3" depart="27246.0" from="428227919" to="428227919"/>
   <trip id="21_1_0" depart="27305.0" from="306258895#0" to="306258895#0"/>
   <trip id="22_1_4" depart="27319.0" from="-641651075" to="-641651075"/>
   <trip id="15_1_4" depart="27321.0" from="5130429" to="5130429"/>
   <trip id="22_1_5" depart="27361.0" from="174857073#8" to="174857073#8"/>
   <trip id="21_1_1" depart="27410.0" from="4729558" to="4729558"/>
   <trip id="22_1_6" depart="27439.0" from="124940792#0" to="124940792#0"/>
   <trip id="22_1_7" depart="27509.0" from="96260967" to="96260967"/>
   <trip id="22_1_8" depart="27547.0" from="96260966" to="96260966"/>
   <trip id="22_1_9" depart="27665.0" from="364249819" to="428303127"/>
   <trip id="22_1_10" depart="27704.0" from="15257846" to="15257846"/>
   <trip id="22_1_11" depart="27719.0" from="-564742492" to="415141362"/>
   <trip id="22_1_12" depart="27773.0" from="4910873" to="4910873"/>
   <trip id="14_1_0" depart="27777.0" from="38008151" to="4848517"/>
   <trip id="22_1_13" depart="27789.0" from="4749003" to="4749003"/>
   <trip id="22_1_14" depart="27797.0" from="245265270#1" to="245265270#1"/>
   <trip id="14_1_1" depart="27800.0" from="402084477" to="402084477"/>
   <trip id="14_1_2" depart="27814.0" from="15257850" to="15257850"/>
   <trip id="14_1_3" depart="27847.0" from="158124201" to="428230629"/>
   <trip id="22_1_15" depart="27870.0" from="4749004" to="4749004"/>
   <trip id="14_1_4" depart="27915.0" from="56178980" to="56178980"/>
   <trip id="14_1_5" depart="27993.0" from="124272636" to="124272636"/>
   <trip id="14_1_6" depart="28017.0" from="171121264" to="486260018"/>
   <trip id="14_1_7" depart="28039.0" from="124045505" to="124045505"/>
   <trip id="14_1_8" depart="28062.0" from="486260017#0" to="486260017#0"/>
   <trip id="14_1_9" depart="28185.0" from="452336740" to="452336740"/>
   <trip id="24_1_0" depart="28398.0" from="4749004" to="4749004"/>
   <trip id="27_1_0" depart="28543.0" from="38008151" to="431431055"/>
   <trip id="27_1_1" depart="28651.0" from="-564742531#1" to="6458343#6"/>
   <trip id="11_1_0" depart="28737.0" from="4749004" to="4749004"/>
   <trip id="27_2_0" depart="39666.0" from="484815669" to="484815669"/>
   <trip id="27_2_1" depart="39810.0" from="245265270#0" to="245265270#0"/>
   <trip id="27_2_2" depart="39832.0" from="4749003" to="4749003"/>
   <trip id="27_2_3" depart="39869.0" from="500021865" to="500021865"/>
   <trip id="24_2_0" depart="40426.0" from="4749006" to="4749006"/>
   <trip id="15_2_0" depart="40497.0" from="4759238" to="4759238"/>
   <trip id="15_2_1" depart="40575.0" from="15257843" to="15257843"/>
   <trip id="15_2_2" depart="40587.0" from="15257844" to="15257844"/>
   <trip id="19_2_0" depart="40606.0" from="306258895#0" to="306258895#0"/>
   <trip id="15_2_3" depart="40608.0" from="124940411" to="124940411"/>
   <trip id="15_2_4" depart="40639.0" from="306258894" to="306258894"/>
   <trip id="19_2_1" depart="40711.0" from="4729558" to="4729558"/>
   <trip id="22_2_0" depart="41994.0" from="4749006" to="4749006"/>
   <trip id="22_2_1" depart="42092.0" from="4712852" to="4712852"/>
   <trip id="22_2_2" depart="42150.0" from="15257849" to="15257849"/>
   <trip id="22_2_3" depart="42166.0" from="428230613" to="428230613"/>
   <trip id="14_2_0" depart="42431.0" from="106927266" to="106927266"/>
   <trip id="22_2_4" depart="42443.0" from="37551452#0" to="37551452#0"/>
   <trip id="14_2_1" depart="42460.0" from="14017470" to="14017470"/>
   <trip id="22_2_5" depart="42528.0" from="37551450#0" to="343732023#0"/>
   <trip id="14_2_2" depart="42536.0" from="428232211" to="96260970"/>
   <trip id="14_2_3" depart="42593.0" from="96260967" to="96260967"/>
   <trip id="14_2_4" depart="42631.0" from="96260966" to="96260966"/>
   <trip id="3_2_0" depart="42674.0" from="4759238" to="4759238"/>
   <trip id="14_2_5" depart="42734.0" from="97129768#1" to="97129768#1"/>
   <trip id="3_2_1" depart="42752.0" from="15257843" to="15257843"/>
   <trip id="3_2_2" depart="42764.0" from="15257844" to="15257844"/>
   <trip id="22_2_6" depart="42767.0" from="432313096#1" to="432313096#1"/>
   <trip id="3_2_3" depart="42785.0" from="124940411" to="124940411"/>
   <trip id="14_2_6" depart="42794.0" from="15257843" to="15257843"/>
   <trip id="14_2_7" depart="42806.0" from="15257844" to="15257844"/>
   <trip id="3_2_4" depart="42816.0" from="306258894" to="306258894"/>
   <trip id="14_2_8" depart="42827.0" from="124940411" to="124940411"/>
   <trip id="14_2_9" depart="42858.0" from="306258894" to="306258894"/>
   <trip id="11_2_0" depart="43156.0" from="306258895#0" to="306258895#0"/>
   <trip id="22_2_7" depart="43175.0" from="335668924#0" to="335668924#0"/>
   <trip id="22_2_8" depart="43198.0" from="415358599" to="415358599"/>
   <trip id="11_2_1" depart="43261.0" from="4729558" to="4729558"/>
   <trip id="22_2_9" depart="43264.0" from="397027079" to="397027079"/>
   <trip id="22_2_10" depart="43300.0" from="387237224" to="387237224"/>
</routes>
