<?xml version="1.0" encoding="UTF-8"?>
<!-- generated on 2021-07-20 16:24:09.861695 by 3.matsim_toSUMO_rou.py v1_5_0+0000-3a3be608d2
  options: 
-->
<routes xmlns:xsi="http://www.w3.org/2001/XMLSchema-instance" xsi:noNamespaceSchemaLocation="http://sumo.dlr.de/xsd/routes_file.xsd">
   <trip id="20_1_0" depart="25237.0" from="8071578#3" to="8071578#3"/>
   <trip id="23_1_0" depart="25242.0" from="gneE507" to="gneE507"/>
   <trip id="8_1_0" depart="25242.0" from="4794449#2" to="4794449#2"/>
   <trip id="24_1_0" depart="25246.0" from="617436202#0" to="617436202#0"/>
   <trip id="8_1_1" depart="25247.0" from="332200723" to="332200723"/>
   <trip id="8_1_2" depart="25257.0" from="490208227#0" to="45370338#0"/>
   <trip id="24_1_1" depart="25258.0" from="621378235#1" to="621378235#1"/>
   <trip id="24_1_2" depart="25272.0" from="6450457#0" to="gneE494"/>
   <trip id="8_1_3" depart="25273.0" from="6464775#0" to="6464775#0"/>
   <trip id="23_1_1" depart="25275.0" from="124272619" to="124272619"/>
   <trip id="24_1_3" depart="25315.0" from="421777796#6" to="421777796#6"/>
   <trip id="24_1_4" depart="25329.0" from="8111068#1" to="8111068#1"/>
   <trip id="24_1_5" depart="25339.0" from="97129777.53" to="97129777.53"/>
   <trip id="20_1_1" depart="25345.0" from="124272619" to="124272619"/>
   <trip id="8_1_4" depart="25349.0" from="51969309" to="51969309"/>
   <trip id="20_1_2" depart="25366.0" from="428303127" to="428303127"/>
   <trip id="8_1_5" depart="25371.0" from="6475815#5" to="6475815#5"/>
   <trip id="20_1_3" depart="25391.0" from="38008155" to="4749003"/>
   <trip id="12_1_0" depart="25451.0" from="4749006" to="4749006"/>
   <trip id="12_1_1" depart="25477.0" from="4910876" to="4910876"/>
   <trip id="28_1_0" depart="25489.0" from="-174388265#1" to="-174388265#1"/>
   <trip id="28_1_1" depart="25499.0" from="-174393608#1" to="-174393608#1"/>
   <trip id="12_1_2" depart="25517.0" from="4759238" to="4759238"/>
   <trip id="14_1_0" depart="25522.0" from="38008151" to="38008152"/>
   <trip id="5_1_0" depart="25526.0" from="6433848#2" to="6433848#2"/>
   <trip id="28_1_2" depart="25533.0" from="58560464#0" to="58560464#0"/>
   <trip id="5_1_1" depart="25549.0" from="158612540#1" to="158612540#1"/>
   <trip id="14_1_1" depart="25556.0" from="97129768#1" to="97129768#1"/>
   <trip id="12_1_3" depart="25557.0" from="5130429" to="5130429"/>
   <trip id="14_1_2" depart="25572.0" from="124272636" to="124272636"/>
   <trip id="14_1_3" depart="25579.0" from="486260018" to="486260018"/>
   <trip id="28_1_3" depart="25609.0" from="428303127" to="428303127"/>
   <trip id="28_1_4" depart="25634.0" from="38008155" to="38008155"/>
   <trip id="28_1_5" depart="25640.0" from="500021865" to="500021865"/>
   <trip id="10_1_0" depart="25667.0" from="4729558" to="4729558"/>
   <trip id="10_1_1" depart="25717.0" from="171121248" to="171121248"/>
   <trip id="25_1_0" depart="25745.0" from="58560464#0" to="58560464#0"/>
   <trip id="10_1_2" depart="25751.0" from="5130429" to="5130429"/>
   <trip id="9_1_0" depart="25774.0" from="672365867" to="672365867"/>
   <trip id="25_1_1" depart="25846.0" from="38008155" to="38008155"/>
   <trip id="25_1_2" depart="25852.0" from="500021865" to="500021865"/>
   <trip id="5_2_0" depart="39608.0" from="158612540#1" to="158612540#1"/>
   <trip id="3_2_0" depart="39609.0" from="gneE507" to="gneE507"/>
   <trip id="3_2_1" depart="39613.0" from="5130429" to="5130429"/>
   <trip id="5_2_1" depart="39631.0" from="621342731" to="621342731"/>
   <trip id="25_2_0" depart="39807.0" from="171121248" to="171121248"/>
   <trip id="23_2_0" depart="39819.0" from="4749006" to="4749006"/>
   <trip id="13_2_0" depart="39839.0" from="4729558" to="4729558"/>
   <trip id="25_2_1" depart="39841.0" from="5130429" to="5130429"/>
   <trip id="23_2_1" depart="39845.0" from="4910876" to="4910876"/>
   <trip id="25_2_2" depart="39848.0" from="169734863#0" to="169734863#0"/>
   <trip id="13_2_1" depart="39855.0" from="4712862" to="4712862"/>
   <trip id="23_2_2" depart="39890.0" from="171121248" to="171121248"/>
   <trip id="23_2_3" depart="39898.0" from="124272636" to="124272636"/>
   <trip id="23_2_4" depart="39905.0" from="486260018" to="486260018"/>
   <trip id="20_2_0" depart="39960.0" from="4749006" to="4749006"/>
   <trip id="19_2_0" depart="39963.0" from="672365867" to="672365867"/>
   <trip id="20_2_1" depart="39986.0" from="4910876" to="4910876"/>
   <trip id="28_2_0" depart="39991.0" from="171121248" to="171121248"/>
   <trip id="24_2_0" depart="39999.0" from="4729558" to="4729558"/>
   <trip id="24_2_1" depart="40008.0" from="38008151" to="38008152"/>
   <trip id="28_2_1" depart="40025.0" from="5130429" to="5130429"/>
   <trip id="20_2_2" depart="40031.0" from="171121248" to="171121248"/>
   <trip id="28_2_2" depart="40032.0" from="169734863#0" to="169734863#0"/>
   <trip id="20_2_3" depart="40039.0" from="124272636" to="124272636"/>
   <trip id="24_2_2" depart="40042.0" from="97129768#1" to="97129768#1"/>
   <trip id="20_2_4" depart="40046.0" from="486260018" to="486260018"/>
   <trip id="24_2_3" depart="40051.0" from="171121248" to="171121248"/>
   <trip id="24_2_4" depart="40078.0" from="62412697#2" to="62412697#2"/>
   <trip id="20_2_5" depart="40083.0" from="6430733#0" to="6463008#0"/>
   <trip id="24_2_5" depart="40089.0" from="620595955#0" to="620595955#0"/>
   <trip id="28_2_3" depart="40093.0" from="-428341305" to="-428341305"/>
   <trip id="20_2_6" depart="40111.0" from="6384350#2" to="6384350#2"/>
   <trip id="10_2_0" depart="40126.0" from="124272619" to="124272619"/>
   <trip id="24_2_6" depart="40128.0" from="617436202#0" to="617436202#0"/>
   <trip id="20_2_7" depart="40135.0" from="8071578#3" to="8071578#3"/>
   <trip id="12_2_0" depart="40163.0" from="6508650#4" to="58560464#0"/>
   <trip id="12_2_1" depart="40205.0" from="96260967" to="35824613"/>
   <trip id="12_2_2" depart="40225.0" from="8111068#1" to="8111068#1"/>
   <trip id="4_2_0" depart="40226.0" from="672365867" to="672365867"/>
   <trip id="14_2_0" depart="40234.0" from="38008155" to="38008155"/>
   <trip id="14_2_1" depart="40240.0" from="500021865" to="500021865"/>
   <trip id="12_2_3" depart="40248.0" from="428303127" to="428303127"/>
   <trip id="12_2_4" depart="40273.0" from="38008155" to="4749003"/>
</routes>
