<?xml version="1.0" encoding="UTF-8"?>

<!-- generated on 07/10/21 12:05:50 by Eclipse SUMO netconvert Version 1.5.0
<configuration xmlns:xsi="http://www.w3.org/2001/XMLSchema-instance" xsi:noNamespaceSchemaLocation="http://sumo.dlr.de/xsd/netconvertConfiguration.xsd">

    <input>
        <matsim-files value="MATSim/streets_sdot_fixed_ToMATSim_DowntownLinks.xml"/>
    </input>

    <output>
        <output-file value="SUMO/SUMOLinks.net.xml"/>
    </output>

    <projection>
        <proj.utm value="true"/>
    </projection>

    <report>
        <aggregate-warnings value="5"/>
    </report>

</configuration>
-->

<net version="1.3" junctionCornerDetail="5" limitTurnSpeed="5.50" xmlns:xsi="http://www.w3.org/2001/XMLSchema-instance" xsi:noNamespaceSchemaLocation="http://sumo.dlr.de/xsd/net_file.xsd">

    <location netOffset="-548017.23,-5272247.54" convBoundary="0.00,0.00,2619.43,2078.46" origBoundary="-122.360983,47.601684,-122.326351,47.620556" projParameter="+proj=utm +zone=10 +ellps=WGS84 +datum=WGS84 +units=m +no_defs"/>

    <edge id=":-775208_0" function="internal">
        <lane id=":-775208_0_0" index="0" speed="6.51" length="9.04" shape="1779.10,494.05 1776.84,493.04 1774.80,492.99 1772.98,493.91 1771.38,495.80"/>
    </edge>
    <edge id=":-775208_1" function="internal">
        <lane id=":-775208_1_0" index="0" speed="8.00" length="14.20" shape="1779.10,494.05 1776.14,491.53 1774.69,488.67 1774.76,485.46 1776.36,481.91"/>
    </edge>
    <edge id=":-775208_2" function="internal">
        <lane id=":-775208_2_0" index="0" speed="3.65" length="4.67" shape="1779.10,494.05 1778.52,492.73 1778.60,491.84 1779.37,491.38 1780.81,491.34"/>
    </edge>
    <edge id=":-775208_3" function="internal">
        <lane id=":-775208_3_0" index="0" speed="6.51" length="9.03" shape="1779.06,483.62 1778.05,485.88 1778.00,487.92 1778.92,489.74 1780.81,491.34"/>
    </edge>
    <edge id=":-775208_4" function="internal">
        <lane id=":-775208_4_0" index="0" speed="12.50" length="14.40" shape="1779.06,483.62 1771.38,495.80"/>
    </edge>
    <edge id=":-775208_5" function="internal">
        <lane id=":-775208_5_0" index="0" speed="3.65" length="4.67" shape="1779.06,483.62 1777.74,484.21 1776.85,484.12 1776.39,483.35 1776.36,481.91"/>
    </edge>
    <edge id=":-775208_6" function="internal">
        <lane id=":-775208_6_0" index="0" speed="12.50" length="14.40" shape="1768.67,494.09 1776.36,481.91"/>
    </edge>
    <edge id=":-775208_7" function="internal">
        <lane id=":-775208_7_0" index="0" speed="8.00" length="14.19" shape="1768.67,494.09 1771.19,491.13 1774.05,489.68 1777.26,489.75 1780.81,491.34"/>
    </edge>
    <edge id=":-775208_8" function="internal">
        <lane id=":-775208_8_0" index="0" speed="3.65" length="4.67" shape="1768.67,494.09 1769.99,493.50 1770.88,493.59 1771.34,494.36 1771.38,495.80"/>
    </edge>
    <edge id=":-775209_0" function="internal">
        <lane id=":-775209_0_0" index="0" speed="6.51" length="9.03" shape="1729.32,562.47 1728.31,564.73 1728.27,566.77 1729.19,568.59 1731.07,570.19"/>
    </edge>
    <edge id=":-775209_1" function="internal">
        <lane id=":-775209_1_0" index="0" speed="12.50" length="11.20" shape="1729.32,562.47 1723.35,571.94"/>
    </edge>
    <edge id=":-775209_2" function="internal">
        <lane id=":-775209_2_0" index="0" speed="3.65" length="4.67" shape="1729.32,562.47 1728.00,563.06 1727.11,562.97 1726.65,562.20 1726.62,560.76"/>
    </edge>
    <edge id=":-775209_3" function="internal">
        <lane id=":-775209_3_0" index="0" speed="12.50" length="11.20" shape="1720.64,570.23 1726.62,560.76"/>
    </edge>
    <edge id=":-775209_4" function="internal">
        <lane id=":-775209_4_0" index="0" speed="7.33" length="11.73" shape="1720.64,570.23 1722.41,568.46 1724.74,567.86 1727.63,568.43 1731.07,570.19"/>
    </edge>
    <edge id=":-775209_5" function="internal">
        <lane id=":-775209_5_0" index="0" speed="3.65" length="4.67" shape="1720.64,570.23 1721.96,569.65 1722.85,569.73 1723.31,570.50 1723.35,571.94"/>
    </edge>
    <edge id=":-775210_0" function="internal">
        <lane id=":-775210_0_0" index="0" speed="6.51" length="9.03" shape="1590.92,782.02 1589.91,784.28 1589.86,786.32 1590.78,788.14 1592.67,789.74"/>
    </edge>
    <edge id=":-775210_1" function="internal">
        <lane id=":-775210_1_0" index="0" speed="12.50" length="14.40" shape="1590.92,782.02 1583.24,794.20"/>
    </edge>
    <edge id=":-775210_2" function="internal">
        <lane id=":-775210_2_0" index="0" speed="12.19" length="34.34" shape="1590.92,782.02 1587.22,784.23 1580.80,783.44 1571.67,779.63 1559.82,772.82"/>
    </edge>
    <edge id=":-775210_3" function="internal">
        <lane id=":-775210_3_0" index="0" speed="11.58" length="33.81" shape="1590.92,782.02 1586.60,784.35 1580.01,782.46 1571.63,777.29 1561.99,769.82"/>
    </edge>
    <edge id=":-775210_4" function="internal">
        <lane id=":-775210_4_0" index="0" speed="3.65" length="4.67" shape="1590.92,782.02 1589.60,782.61 1588.71,782.52 1588.25,781.75 1588.21,780.31"/>
    </edge>
    <edge id=":-775210_5" function="internal">
        <lane id=":-775210_5_0" index="0" speed="11.35" length="29.62" shape="1580.53,792.49 1580.36,789.49 1576.85,785.21 1570.00,779.65 1559.82,772.82"/>
    </edge>
    <edge id=":-775210_6" function="internal">
        <lane id=":-775210_6_0" index="0" speed="12.04" length="30.27" shape="1580.53,792.49 1580.53,789.24 1577.44,784.38 1571.26,777.90 1561.99,769.82"/>
    </edge>
    <edge id=":-775210_7" function="internal">
        <lane id=":-775210_7_0" index="0" speed="12.50" length="14.40" shape="1580.53,792.49 1588.21,780.31"/>
    </edge>
    <edge id=":-775210_8" function="internal">
        <lane id=":-775210_8_0" index="0" speed="8.00" length="14.19" shape="1580.53,792.49 1583.05,789.53 1585.91,788.08 1589.12,788.15 1592.67,789.74"/>
    </edge>
    <edge id=":-775210_9" function="internal">
        <lane id=":-775210_9_0" index="0" speed="3.65" length="4.67" shape="1580.53,792.49 1581.85,791.90 1582.74,791.99 1583.20,792.76 1583.24,794.20"/>
    </edge>
    <edge id=":-775211_0" function="internal">
        <lane id=":-775211_0_0" index="0" speed="6.51" length="9.04" shape="1521.74,902.26 1519.48,901.25 1517.44,901.20 1515.61,902.13 1514.01,904.01"/>
    </edge>
    <edge id=":-775211_1" function="internal">
        <lane id=":-775211_1_0" index="0" speed="12.50" length="14.40" shape="1521.74,902.26 1509.55,894.59"/>
    </edge>
    <edge id=":-775211_2" function="internal">
        <lane id=":-775211_2_0" index="0" speed="8.00" length="14.19" shape="1521.74,902.26 1518.77,899.74 1517.33,896.88 1517.40,893.67 1518.98,890.12"/>
    </edge>
    <edge id=":-775211_3" function="internal">
        <lane id=":-775211_3_0" index="0" speed="12.50" length="14.40" shape="1521.69,891.83 1514.01,904.01"/>
    </edge>
    <edge id=":-775211_4" function="internal">
        <lane id=":-775211_4_0" index="0" speed="8.01" length="14.19" shape="1521.69,891.83 1519.17,894.79 1516.31,896.24 1513.10,896.17 1509.55,894.59"/>
    </edge>
    <edge id=":-775211_5" function="internal">
        <lane id=":-775211_5_0" index="0" speed="3.65" length="4.67" shape="1521.69,891.83 1520.37,892.42 1519.48,892.33 1519.02,891.57 1518.98,890.12"/>
    </edge>
    <edge id=":-775211_6" function="internal">
        <lane id=":-775211_6_0" index="0" speed="6.51" length="9.04" shape="1511.25,891.88 1513.51,892.89 1515.56,892.93 1517.38,892.01 1518.98,890.12"/>
    </edge>
    <edge id=":-775211_7" function="internal">
        <lane id=":-775211_7_0" index="0" speed="8.00" length="14.20" shape="1511.25,891.88 1514.22,894.39 1515.67,897.25 1515.60,900.46 1514.01,904.01"/>
    </edge>
    <edge id=":-775211_8" function="internal">
        <lane id=":-775211_8_0" index="0" speed="3.65" length="4.67" shape="1511.25,891.88 1511.84,893.19 1511.75,894.08 1510.99,894.55 1509.55,894.59"/>
    </edge>
    <edge id=":-775211_9" function="internal">
        <lane id=":-775211_9_0" index="0" speed="6.50" length="9.03" shape="1511.30,902.31 1512.31,900.05 1512.36,898.01 1511.44,896.19 1509.55,894.59"/>
    </edge>
    <edge id=":-775211_10" function="internal">
        <lane id=":-775211_10_0" index="0" speed="12.50" length="14.40" shape="1511.30,902.31 1518.98,890.12"/>
    </edge>
    <edge id=":-775211_11" function="internal">
        <lane id=":-775211_11_0" index="0" speed="3.65" length="4.67" shape="1511.30,902.31 1512.62,901.72 1513.51,901.81 1513.97,902.57 1514.01,904.01"/>
    </edge>
    <edge id=":-775607_0" function="internal">
        <lane id=":-775607_0_0" index="0" speed="9.84" length="12.66" shape="2201.80,4.73 2199.37,5.19 2196.95,6.58 2194.56,8.92 2192.18,12.21"/>
    </edge>
    <edge id=":-775607_1" function="internal">
        <lane id=":-775607_1_0" index="0" speed="12.50" length="15.54" shape="2201.80,4.73 2186.26,4.64"/>
    </edge>
    <edge id=":-775607_2" function="internal">
        <lane id=":-775607_2_0" index="0" speed="3.65" length="4.67" shape="2201.80,4.73 2200.61,3.92 2200.21,3.12 2200.62,2.32 2201.82,1.53"/>
    </edge>
    <edge id=":-775607_3" function="internal">
        <lane id=":-775607_3_0" index="0" speed="12.50" length="15.54" shape="2186.28,1.44 2201.82,1.53"/>
    </edge>
    <edge id=":-775607_4" function="internal">
        <lane id=":-775607_4_0" index="0" speed="7.39" length="17.04" shape="2186.28,1.44 2191.39,2.14 2194.07,4.17 2194.34,7.52 2192.18,12.21"/>
    </edge>
    <edge id=":-775607_5" function="internal">
        <lane id=":-775607_5_0" index="0" speed="3.65" length="4.67" shape="2186.28,1.44 2187.47,2.25 2187.87,3.05 2187.47,3.85 2186.26,4.64"/>
    </edge>
    <edge id=":-775607_6" function="internal">
        <lane id=":-775607_6_0" index="0" speed="5.63" length="9.28" shape="2189.48,10.50 2190.65,7.95 2190.51,6.13 2189.04,5.02 2186.26,4.64"/>
    </edge>
    <edge id=":-775607_7" function="internal">
        <lane id=":-775607_7_0" index="0" speed="10.98" length="15.90" shape="2189.48,10.50 2192.38,6.56 2195.40,3.75 2198.55,2.08 2201.82,1.53"/>
    </edge>
    <edge id=":-775607_8" function="internal">
        <lane id=":-775607_8_0" index="0" speed="3.65" length="4.67" shape="2189.48,10.50 2190.79,9.91 2191.68,10.00 2192.15,10.77 2192.18,12.21"/>
    </edge>
    <edge id=":-775608_0" function="internal">
        <lane id=":-775608_0_0" index="0" speed="6.51" length="9.04" shape="2160.43,73.16 2158.17,72.15 2156.12,72.11 2154.30,73.03 2152.70,74.92"/>
    </edge>
    <edge id=":-775608_1" function="internal">
        <lane id=":-775608_1_0" index="0" speed="17.36" length="14.43" shape="2160.43,73.16 2148.24,65.44"/>
    </edge>
    <edge id=":-775608_2" function="internal">
        <lane id=":-775608_2_0" index="0" speed="8.00" length="14.21" shape="2160.43,73.16 2157.46,70.65 2156.01,67.78 2156.09,64.57 2157.68,61.01"/>
    </edge>
    <edge id=":-775608_3" function="internal">
        <lane id=":-775608_3_0" index="0" speed="3.65" length="4.67" shape="2160.43,73.16 2159.84,71.85 2159.93,70.96 2160.69,70.49 2162.13,70.45"/>
    </edge>
    <edge id=":-775608_4" function="internal">
        <lane id=":-775608_4_0" index="0" speed="6.51" length="9.05" shape="2160.38,62.72 2159.37,64.98 2159.32,67.03 2160.24,68.85 2162.13,70.45"/>
    </edge>
    <edge id=":-775608_5" function="internal">
        <lane id=":-775608_5_0" index="0" speed="22.22" length="14.42" shape="2160.38,62.72 2152.70,74.92"/>
    </edge>
    <edge id=":-775608_6" function="internal">
        <lane id=":-775608_6_0" index="0" speed="7.99" length="5.93" shape="2160.38,62.72 2157.86,65.69 2156.04,66.61"/>
    </edge>
    <edge id=":-775608_7" function="internal">
        <lane id=":-775608_7_0" index="0" speed="3.65" length="2.34" shape="2160.38,62.72 2159.07,63.31 2158.18,63.22"/>
    </edge>
    <edge id=":-775608_16" function="internal">
        <lane id=":-775608_16_0" index="0" speed="7.99" length="8.28" shape="2156.04,66.61 2155.00,67.13 2151.79,67.05 2148.24,65.44"/>
    </edge>
    <edge id=":-775608_17" function="internal">
        <lane id=":-775608_17_0" index="0" speed="3.65" length="2.34" shape="2158.18,63.22 2157.71,62.45 2157.68,61.01"/>
    </edge>
    <edge id=":-775608_8" function="internal">
        <lane id=":-775608_8_0" index="0" speed="6.49" length="9.03" shape="2149.96,62.74 2152.21,63.77 2154.25,63.82 2156.07,62.90 2157.68,61.01"/>
    </edge>
    <edge id=":-775608_9" function="internal">
        <lane id=":-775608_9_0" index="0" speed="17.36" length="14.41" shape="2149.96,62.74 2162.13,70.45"/>
    </edge>
    <edge id=":-775608_10" function="internal">
        <lane id=":-775608_10_0" index="0" speed="8.02" length="14.21" shape="2149.96,62.74 2152.92,65.28 2154.36,68.16 2154.29,71.37 2152.70,74.92"/>
    </edge>
    <edge id=":-775608_11" function="internal">
        <lane id=":-775608_11_0" index="0" speed="3.65" length="4.67" shape="2149.96,62.74 2150.54,64.06 2150.45,64.95 2149.68,65.41 2148.24,65.44"/>
    </edge>
    <edge id=":-775608_12" function="internal">
        <lane id=":-775608_12_0" index="0" speed="6.53" length="9.07" shape="2149.99,73.21 2151.00,70.95 2151.05,68.90 2150.13,67.06 2148.24,65.44"/>
    </edge>
    <edge id=":-775608_13" function="internal">
        <lane id=":-775608_13_0" index="0" speed="22.22" length="14.41" shape="2149.99,73.21 2157.68,61.01"/>
    </edge>
    <edge id=":-775608_14" function="internal">
        <lane id=":-775608_14_0" index="0" speed="8.01" length="5.92" shape="2149.99,73.21 2152.51,70.25 2154.33,69.33"/>
    </edge>
    <edge id=":-775608_15" function="internal">
        <lane id=":-775608_15_0" index="0" speed="3.65" length="2.34" shape="2149.99,73.21 2151.31,72.62 2152.20,72.71"/>
    </edge>
    <edge id=":-775608_18" function="internal">
        <lane id=":-775608_18_0" index="0" speed="8.01" length="8.27" shape="2154.33,69.33 2155.37,68.80 2158.58,68.87 2162.13,70.45"/>
    </edge>
    <edge id=":-775608_19" function="internal">
        <lane id=":-775608_19_0" index="0" speed="3.65" length="2.34" shape="2152.20,72.71 2152.66,73.47 2152.70,74.92"/>
    </edge>
    <edge id=":-775609_0" function="internal">
        <lane id=":-775609_0_0" index="0" speed="6.51" length="9.04" shape="1743.14,734.97 1740.88,733.96 1738.84,733.92 1737.02,734.84 1735.41,736.72"/>
    </edge>
    <edge id=":-775609_1" function="internal">
        <lane id=":-775609_1_0" index="0" speed="17.36" length="14.40" shape="1743.14,734.97 1730.96,727.29"/>
    </edge>
    <edge id=":-775609_2" function="internal">
        <lane id=":-775609_2_0" index="0" speed="8.00" length="14.19" shape="1743.14,734.97 1740.18,732.45 1738.73,729.59 1738.80,726.38 1740.39,722.83"/>
    </edge>
    <edge id=":-775609_3" function="internal">
        <lane id=":-775609_3_0" index="0" speed="3.65" length="4.67" shape="1743.14,734.97 1742.55,733.65 1742.64,732.76 1743.41,732.30 1744.85,732.26"/>
    </edge>
    <edge id=":-775609_4" function="internal">
        <lane id=":-775609_4_0" index="0" speed="6.51" length="9.03" shape="1743.10,724.54 1742.08,726.80 1742.04,728.84 1742.96,730.66 1744.85,732.26"/>
    </edge>
    <edge id=":-775609_5" function="internal">
        <lane id=":-775609_5_0" index="0" speed="22.22" length="14.40" shape="1743.10,724.54 1735.41,736.72"/>
    </edge>
    <edge id=":-775609_6" function="internal">
        <lane id=":-775609_6_0" index="0" speed="8.00" length="5.93" shape="1743.10,724.54 1740.58,727.50 1738.75,728.43"/>
    </edge>
    <edge id=":-775609_7" function="internal">
        <lane id=":-775609_7_0" index="0" speed="3.65" length="2.34" shape="1743.10,724.54 1741.78,725.13 1740.89,725.04"/>
    </edge>
    <edge id=":-775609_16" function="internal">
        <lane id=":-775609_16_0" index="0" speed="8.00" length="8.26" shape="1738.75,728.43 1737.71,728.95 1734.51,728.88 1730.96,727.29"/>
    </edge>
    <edge id=":-775609_17" function="internal">
        <lane id=":-775609_17_0" index="0" speed="3.65" length="2.34" shape="1740.89,725.04 1740.43,724.28 1740.39,722.83"/>
    </edge>
    <edge id=":-775609_8" function="internal">
        <lane id=":-775609_8_0" index="0" speed="6.51" length="9.04" shape="1732.66,724.59 1734.92,725.60 1736.96,725.64 1738.79,724.72 1740.39,722.83"/>
    </edge>
    <edge id=":-775609_9" function="internal">
        <lane id=":-775609_9_0" index="0" speed="17.36" length="14.40" shape="1732.66,724.59 1744.85,732.26"/>
    </edge>
    <edge id=":-775609_10" function="internal">
        <lane id=":-775609_10_0" index="0" speed="8.00" length="14.19" shape="1732.66,724.59 1735.63,727.10 1737.07,729.97 1737.00,733.17 1735.41,736.72"/>
    </edge>
    <edge id=":-775609_11" function="internal">
        <lane id=":-775609_11_0" index="0" speed="3.65" length="4.67" shape="1732.66,724.59 1733.25,725.90 1733.16,726.79 1732.40,727.26 1730.96,727.29"/>
    </edge>
    <edge id=":-775609_12" function="internal">
        <lane id=":-775609_12_0" index="0" speed="6.51" length="9.03" shape="1732.71,735.02 1733.72,732.76 1733.76,730.72 1732.84,728.90 1730.96,727.29"/>
    </edge>
    <edge id=":-775609_13" function="internal">
        <lane id=":-775609_13_0" index="0" speed="22.22" length="14.40" shape="1732.71,735.02 1740.39,722.83"/>
    </edge>
    <edge id=":-775609_14" function="internal">
        <lane id=":-775609_14_0" index="0" speed="8.00" length="5.93" shape="1732.71,735.02 1735.23,732.05 1737.05,731.13"/>
    </edge>
    <edge id=":-775609_15" function="internal">
        <lane id=":-775609_15_0" index="0" speed="3.65" length="2.34" shape="1732.71,735.02 1734.02,734.43 1734.91,734.52"/>
    </edge>
    <edge id=":-775609_18" function="internal">
        <lane id=":-775609_18_0" index="0" speed="8.00" length="8.26" shape="1737.05,731.13 1738.09,730.61 1741.30,730.68 1744.85,732.26"/>
    </edge>
    <edge id=":-775609_19" function="internal">
        <lane id=":-775609_19_0" index="0" speed="3.65" length="2.34" shape="1734.91,734.52 1735.38,735.28 1735.41,736.72"/>
    </edge>
    <edge id=":-775610_0" function="internal">
        <lane id=":-775610_0_0" index="0" speed="6.51" length="9.03" shape="1673.93,844.75 1671.67,843.74 1669.63,843.69 1667.81,844.61 1666.20,846.50"/>
    </edge>
    <edge id=":-775610_1" function="internal">
        <lane id=":-775610_1_0" index="0" speed="8.00" length="14.19" shape="1673.93,844.75 1670.97,842.23 1669.52,839.37 1669.59,836.16 1671.18,832.61"/>
    </edge>
    <edge id=":-775610_2" function="internal">
        <lane id=":-775610_2_0" index="0" speed="3.65" length="4.67" shape="1673.93,844.75 1673.34,843.43 1673.43,842.54 1674.19,842.08 1675.64,842.04"/>
    </edge>
    <edge id=":-775610_3" function="internal">
        <lane id=":-775610_3_0" index="0" speed="6.51" length="9.03" shape="1673.89,834.32 1672.87,836.58 1672.83,838.62 1673.75,840.44 1675.64,842.04"/>
    </edge>
    <edge id=":-775610_4" function="internal">
        <lane id=":-775610_4_0" index="0" speed="22.22" length="14.40" shape="1673.89,834.32 1666.20,846.50"/>
    </edge>
    <edge id=":-775610_5" function="internal">
        <lane id=":-775610_5_0" index="0" speed="3.65" length="2.34" shape="1673.89,834.32 1672.57,834.91 1671.68,834.82"/>
    </edge>
    <edge id=":-775610_12" function="internal">
        <lane id=":-775610_12_0" index="0" speed="3.65" length="2.34" shape="1671.68,834.82 1671.21,834.05 1671.18,832.61"/>
    </edge>
    <edge id=":-775610_6" function="internal">
        <lane id=":-775610_6_0" index="0" speed="6.51" length="9.03" shape="1663.45,834.36 1665.71,835.37 1667.75,835.42 1669.58,834.50 1671.18,832.61"/>
    </edge>
    <edge id=":-775610_7" function="internal">
        <lane id=":-775610_7_0" index="0" speed="17.36" length="14.40" shape="1663.45,834.36 1675.64,842.04"/>
    </edge>
    <edge id=":-775610_8" function="internal">
        <lane id=":-775610_8_0" index="0" speed="8.00" length="14.19" shape="1663.45,834.36 1666.42,836.88 1667.86,839.74 1667.79,842.95 1666.20,846.50"/>
    </edge>
    <edge id=":-775610_9" function="internal">
        <lane id=":-775610_9_0" index="0" speed="22.22" length="14.40" shape="1663.50,844.79 1671.18,832.61"/>
    </edge>
    <edge id=":-775610_10" function="internal">
        <lane id=":-775610_10_0" index="0" speed="8.00" length="5.93" shape="1663.50,844.79 1666.02,841.83 1667.84,840.91"/>
    </edge>
    <edge id=":-775610_11" function="internal">
        <lane id=":-775610_11_0" index="0" speed="3.65" length="2.34" shape="1663.50,844.79 1664.81,844.20 1665.70,844.29"/>
    </edge>
    <edge id=":-775610_13" function="internal">
        <lane id=":-775610_13_0" index="0" speed="8.00" length="8.26" shape="1667.84,840.91 1668.88,840.38 1672.09,840.45 1675.64,842.04"/>
    </edge>
    <edge id=":-775610_14" function="internal">
        <lane id=":-775610_14_0" index="0" speed="3.65" length="2.34" shape="1665.70,844.29 1666.17,845.06 1666.20,846.50"/>
    </edge>
    <edge id=":-775611_0" function="internal">
        <lane id=":-775611_0_0" index="0" speed="6.51" length="9.03" shape="849.80,1637.29 847.94,1635.66 846.00,1635.02 843.99,1635.37 841.90,1636.70"/>
    </edge>
    <edge id=":-775611_1" function="internal">
        <lane id=":-775611_1_0" index="0" speed="12.50" length="14.40" shape="849.80,1637.29 840.41,1626.37"/>
    </edge>
    <edge id=":-775611_2" function="internal">
        <lane id=":-775611_2_0" index="0" speed="8.01" length="14.20" shape="849.80,1637.29 847.71,1634.02 847.17,1630.85 848.18,1627.81 850.74,1624.88"/>
    </edge>
    <edge id=":-775611_3" function="internal">
        <lane id=":-775611_3_0" index="0" speed="3.65" length="4.67" shape="849.80,1637.29 849.63,1635.86 849.97,1635.04 850.84,1634.82 852.23,1635.21"/>
    </edge>
    <edge id=":-775611_4" function="internal">
        <lane id=":-775611_4_0" index="0" speed="6.51" length="9.04" shape="852.83,1627.30 851.19,1629.17 850.55,1631.11 850.90,1633.12 852.23,1635.21"/>
    </edge>
    <edge id=":-775611_5" function="internal">
        <lane id=":-775611_5_0" index="0" speed="22.22" length="14.40" shape="852.83,1627.30 841.90,1636.70"/>
    </edge>
    <edge id=":-775611_6" function="internal">
        <lane id=":-775611_6_0" index="0" speed="8.00" length="5.93" shape="852.83,1627.30 849.55,1629.40 847.53,1629.74"/>
    </edge>
    <edge id=":-775611_7" function="internal">
        <lane id=":-775611_7_0" index="0" speed="3.65" length="2.34" shape="852.83,1627.30 851.39,1627.48 850.57,1627.14"/>
    </edge>
    <edge id=":-775611_16" function="internal">
        <lane id=":-775611_16_0" index="0" speed="8.00" length="8.26" shape="847.53,1629.74 846.39,1629.94 843.34,1628.93 840.41,1626.37"/>
    </edge>
    <edge id=":-775611_17" function="internal">
        <lane id=":-775611_17_0" index="0" speed="3.65" length="2.34" shape="850.57,1627.14 850.35,1626.27 850.74,1624.88"/>
    </edge>
    <edge id=":-775611_8" function="internal">
        <lane id=":-775611_8_0" index="0" speed="6.51" length="9.03" shape="842.84,1624.28 844.70,1625.91 846.64,1626.56 848.65,1626.21 850.74,1624.88"/>
    </edge>
    <edge id=":-775611_9" function="internal">
        <lane id=":-775611_9_0" index="0" speed="12.50" length="14.40" shape="842.84,1624.28 852.23,1635.21"/>
    </edge>
    <edge id=":-775611_10" function="internal">
        <lane id=":-775611_10_0" index="0" speed="8.00" length="14.20" shape="842.84,1624.28 844.93,1627.56 845.48,1630.73 844.47,1633.77 841.90,1636.70"/>
    </edge>
    <edge id=":-775611_11" function="internal">
        <lane id=":-775611_11_0" index="0" speed="3.65" length="4.67" shape="842.84,1624.28 843.02,1625.72 842.67,1626.54 841.80,1626.76 840.41,1626.37"/>
    </edge>
    <edge id=":-775611_12" function="internal">
        <lane id=":-775611_12_0" index="0" speed="6.51" length="9.04" shape="839.82,1634.27 841.45,1632.41 842.09,1630.47 841.75,1628.46 840.41,1626.37"/>
    </edge>
    <edge id=":-775611_13" function="internal">
        <lane id=":-775611_13_0" index="0" speed="22.22" length="14.40" shape="839.82,1634.27 850.74,1624.88"/>
    </edge>
    <edge id=":-775611_14" function="internal">
        <lane id=":-775611_14_0" index="0" speed="8.00" length="5.93" shape="839.82,1634.27 843.10,1632.18 845.11,1631.83"/>
    </edge>
    <edge id=":-775611_15" function="internal">
        <lane id=":-775611_15_0" index="0" speed="3.65" length="2.34" shape="839.82,1634.27 841.25,1634.10 842.07,1634.44"/>
    </edge>
    <edge id=":-775611_18" function="internal">
        <lane id=":-775611_18_0" index="0" speed="8.00" length="8.27" shape="845.11,1631.83 846.26,1631.64 849.30,1632.65 852.23,1635.21"/>
    </edge>
    <edge id=":-775611_19" function="internal">
        <lane id=":-775611_19_0" index="0" speed="3.65" length="2.34" shape="842.07,1634.44 842.29,1635.31 841.90,1636.70"/>
    </edge>
    <edge id=":-775612_0" function="internal">
        <lane id=":-775612_0_0" index="0" speed="6.51" length="9.03" shape="779.12,1698.07 777.26,1696.44 775.32,1695.79 773.31,1696.14 771.22,1697.47"/>
    </edge>
    <edge id=":-775612_1" function="internal">
        <lane id=":-775612_1_0" index="0" speed="12.50" length="14.40" shape="779.12,1698.07 769.73,1687.14"/>
    </edge>
    <edge id=":-775612_2" function="internal">
        <lane id=":-775612_2_0" index="0" speed="7.33" length="11.73" shape="779.12,1698.07 776.88,1694.92 775.88,1692.15 776.13,1689.76 777.63,1687.74"/>
    </edge>
    <edge id=":-775612_3" function="internal">
        <lane id=":-775612_3_0" index="0" speed="22.22" length="11.20" shape="779.72,1690.17 771.22,1697.47"/>
    </edge>
    <edge id=":-775612_4" function="internal">
        <lane id=":-775612_4_0" index="0" speed="7.33" length="4.04" shape="779.72,1690.17 777.50,1691.35 775.97,1691.28"/>
    </edge>
    <edge id=":-775612_5" function="internal">
        <lane id=":-775612_5_0" index="0" speed="3.65" length="2.34" shape="779.72,1690.17 778.29,1690.34 777.46,1690.00"/>
    </edge>
    <edge id=":-775612_9" function="internal">
        <lane id=":-775612_9_0" index="0" speed="7.33" length="7.68" shape="775.97,1691.28 775.10,1691.24 772.51,1689.84 769.73,1687.14"/>
    </edge>
    <edge id=":-775612_10" function="internal">
        <lane id=":-775612_10_0" index="0" speed="3.65" length="2.34" shape="777.46,1690.00 777.24,1689.13 777.63,1687.74"/>
    </edge>
    <edge id=":-775612_6" function="internal">
        <lane id=":-775612_6_0" index="0" speed="6.51" length="9.03" shape="769.14,1695.04 770.77,1693.18 771.41,1691.24 771.07,1689.23 769.73,1687.14"/>
    </edge>
    <edge id=":-775612_7" function="internal">
        <lane id=":-775612_7_0" index="0" speed="22.22" length="11.20" shape="769.14,1695.04 777.63,1687.74"/>
    </edge>
    <edge id=":-775612_8" function="internal">
        <lane id=":-775612_8_0" index="0" speed="3.65" length="2.34" shape="769.14,1695.04 770.57,1694.87 771.39,1695.21"/>
    </edge>
    <edge id=":-775612_11" function="internal">
        <lane id=":-775612_11_0" index="0" speed="3.65" length="2.34" shape="771.39,1695.21 771.61,1696.08 771.22,1697.47"/>
    </edge>
    <edge id=":-776020_0" function="internal">
        <lane id=":-776020_0_0" index="0" speed="6.92" length="11.63" shape="2329.96,11.16 2327.64,9.50 2325.26,9.28 2322.81,10.50 2320.31,13.16"/>
    </edge>
    <edge id=":-776020_1" function="internal">
        <lane id=":-776020_1_0" index="0" speed="12.50" length="16.56" shape="2329.96,11.16 2326.98,8.69 2323.48,6.92 2319.44,5.84 2314.87,5.46"/>
    </edge>
    <edge id=":-776020_2" function="internal">
        <lane id=":-776020_2_0" index="0" speed="6.53" length="14.51" shape="2329.96,11.16 2326.91,7.28 2326.30,4.53 2328.14,2.92 2332.41,2.43"/>
    </edge>
    <edge id=":-776020_3" function="internal">
        <lane id=":-776020_3_0" index="0" speed="11.10" length="14.73" shape="2332.37,5.63 2329.23,6.07 2326.18,7.47 2323.20,9.83 2320.31,13.16"/>
    </edge>
    <edge id=":-776020_4" function="internal">
        <lane id=":-776020_4_0" index="0" speed="12.50" length="17.49" shape="2332.37,5.63 2314.87,5.46"/>
    </edge>
    <edge id=":-776020_5" function="internal">
        <lane id=":-776020_5_0" index="0" speed="3.65" length="4.67" shape="2332.37,5.63 2331.18,4.81 2330.79,4.01 2331.20,3.21 2332.41,2.43"/>
    </edge>
    <edge id=":-776020_6" function="internal">
        <lane id=":-776020_6_0" index="0" speed="12.50" length="17.52" shape="2314.90,2.26 2332.41,2.43"/>
    </edge>
    <edge id=":-776020_7" function="internal">
        <lane id=":-776020_7_0" index="0" speed="7.38" length="17.69" shape="2314.90,2.26 2320.30,2.97 2323.00,5.03 2323.01,8.42 2320.31,13.16"/>
    </edge>
    <edge id=":-776020_8" function="internal">
        <lane id=":-776020_8_0" index="0" speed="3.65" length="4.67" shape="2314.90,2.26 2316.09,3.07 2316.49,3.87 2316.08,4.67 2314.87,5.46"/>
    </edge>
    <edge id=":-776020_9" function="internal">
        <lane id=":-776020_9_0" index="0" speed="5.56" length="9.39" shape="2317.75,11.25 2319.18,8.73 2319.18,6.93 2317.74,5.84 2314.87,5.46"/>
    </edge>
    <edge id=":-776020_10" function="internal">
        <lane id=":-776020_10_0" index="0" speed="12.15" length="17.75" shape="2317.75,11.25 2321.17,7.35 2324.76,4.58 2328.50,2.94 2332.41,2.43"/>
    </edge>
    <edge id=":-776020_11" function="internal">
        <lane id=":-776020_11_0" index="0" speed="3.65" length="4.67" shape="2317.75,11.25 2319.11,10.76 2319.99,10.92 2320.39,11.72 2320.31,13.16"/>
    </edge>
    <edge id=":-776022_0" function="internal">
        <lane id=":-776022_0_0" index="0" speed="6.58" length="9.26" shape="2243.72,125.54 2241.35,124.47 2239.24,124.39 2237.37,125.28 2235.75,127.16"/>
    </edge>
    <edge id=":-776022_1" function="internal">
        <lane id=":-776022_1_0" index="0" speed="22.22" length="14.67" shape="2243.72,125.54 2231.29,117.73"/>
    </edge>
    <edge id=":-776022_2" function="internal">